<?xml version="1.0" encoding="UTF-8"?>

<!-- generated on Tue Oct 10 00:57:27 2023 by Eclipse SUMO duarouter Version 1.8.0
<configuration xmlns:xsi="http://www.w3.org/2001/XMLSchema-instance" xsi:noNamespaceSchemaLocation="http://sumo.dlr.de/xsd/duarouterConfiguration.xsd">

    <input>
        <net-file value="downtown.net.xml"/>
        <route-files value="downtown.trips.xml"/>
    </input>

    <output>
        <output-file value="downtown.rou.xml"/>
        <alternatives-output value="downtown.rou.alt.xml"/>
    </output>

    <report>
        <ignore-errors value="true"/>
    </report>

</configuration>
-->

<routes xmlns:xsi="http://www.w3.org/2001/XMLSchema-instance" xsi:noNamespaceSchemaLocation="http://sumo.dlr.de/xsd/routes_file.xsd">
    <vehicle id="0" depart="0.00">
        <route edges="238615884 -684420995#1 -298699449 -4408744#6 -4408744#5 -4408744#4 -4408744#3 -4408744#2 -4408744#1 197678458#0 265084413 299749393 299749397#0 223333681#0 223333681#1 223333681#2 197598659#0 -197598659#0"/>
    </vehicle>
    <vehicle id="1" depart="1.00">
        <route edges="-685765578#0 260865763#2 260865763#3 260865763#4 223333702#2 685997309 302666746#1 223335354#0 368669404#0 368669404#1 368669404#2 368669404#3 368669404#4 985000006#2 651362341#0 -260770898#9 -260770898#7 -260770898#6"/>
    </vehicle>
    <vehicle id="2" depart="2.00">
        <route edges="299749397#0 223333681#0 223333681#1 223333681#2 -8071144#0 778158671 671109817#6 671109817#7 671109817#8 671109817#9 23921882#0 23921882#1 651362343 302666746#0 -685997309 -223333702#2 260865763#5"/>
    </vehicle>
    <vehicle id="3" depart="3.00">
        <route edges="684421002#0 23726127#0 23726127#1 23726127#2 104749654#2 104749654#3 104749654#4 302666738#3 299749390#0 651362343 197678468 1078922930 302666739#0 265084413 299749393 299749397#0 299749397#1 299749397#2 -23730370#8 -223333682#1"/>
    </vehicle>
    <vehicle id="4" depart="4.00">
        <route edges="197598745#0 651362340#1 -197598659#2"/>
    </vehicle>
    <vehicle id="5" depart="5.00">
        <route edges="-278046280 -195304951 330859425#1 330859425#2 684420997 298699445#1 252388729 137141225#2 -499615983 -223333688#3 -223333688#2 260865763#0 260865763#1 260865763#2 260865763#3 260865763#4 -223333702#1 223333702#1"/>
    </vehicle>
    <vehicle id="6" depart="6.00">
        <route edges="-197598659#2 -260770898#6 -260770898#5 23730370#2 23730370#3 23730370#4 23730370#5 -23730370#5"/>
    </vehicle>
    <vehicle id="8" depart="8.00">
        <route edges="-278047459 278047459 137141225#1 137141225#2 137141225#3 137141225#4 684421002#0 23726127#0 23726127#1"/>
    </vehicle>
    <vehicle id="9" depart="9.00">
        <route edges="368669404#4 985000006#2 651362341#0 671109817#0 671109817#1 671109817#2 671109817#3 671109817#4 -197598189#3 -197598189#2 -197598189#1"/>
    </vehicle>
    <vehicle id="10" depart="10.00">
        <route edges="368669404#3 985000008#2 223335369#0 223335369#1 223335369#2 223335369#3 299749398#1 197678459 302666743#0 685765581#0 685765581#1 685765581#2 685765579#0 685765579#1 8575236#0 8575236#1 8575236#2 685772908#1 137141225#0 137141225#1 137141225#2 137141225#3 252388728 298699445#1 298699445#2"/>
    </vehicle>
    <vehicle id="11" depart="11.00">
        <route edges="1078922930 302666739#0 197678461#0 197678461#1 4408744#1 4408744#2 -223333697#3 -223333721#1"/>
    </vehicle>
    <vehicle id="12" depart="12.00">
        <route edges="8071144#4 -8071144#4 -8071144#2 -8071144#0 778158671 671109817#6 671109817#7 671109817#8 671109817#9 23921882#0 23921882#1 197678461#0 197678461#1 259085025#0 259085025#1 223333718#5 104749654#4"/>
    </vehicle>
    <vehicle id="13" depart="13.00">
        <route edges="-223333688#2 223333688#2 223333688#3 -223333688#3"/>
    </vehicle>
    <vehicle id="14" depart="14.00">
        <route edges="651362341#0 -260770898#9 -260770898#7 -260770898#6 -260770898#5 23730370#2 23730370#3 23730370#4"/>
    </vehicle>
    <vehicle id="15" depart="15.00">
        <route edges="368669404#4 985000006#2 651362341#0 671109817#0 671109817#1 671109817#2 671109817#3 671109817#4 671109817#5 671109817#6 671109817#7 671109817#8 671109817#9 23921882#0 23921882#1 197678461#0 197678461#1 4408744#1 4408744#2 4408744#3 4408744#4 4408744#5 4408744#6 4408744#7 684420997 298699445#1 298699445#2 298699445#3 300128902"/>
    </vehicle>
    <vehicle id="16" depart="16.00">
        <route edges="223333704#3 -4408744#1 197678458#0 651362343 302666746#0 302666746#1 223335354#0 368669404#0 368669404#1 8095485#2 8095485#3"/>
    </vehicle>
    <vehicle id="17" depart="17.00">
        <route edges="195304959 -195304951 330859425#1 330859425#2 684421002#0 23726127#0 23726127#1 23726127#2 104749654#2 104749654#3 104749654#4 302666738#3 299749390#0 651362343 302666746#0 302666746#1 223335354#0 368669404#0 223335365#2"/>
    </vehicle>
    <vehicle id="18" depart="18.00">
        <route edges="4408744#6 4408744#7 684420995#0 684420995#2 238615883"/>
    </vehicle>
    <vehicle id="19" depart="19.00">
        <route edges="671109817#3 671109817#4 671109817#5 671109817#6 671109817#7 671109817#8 671109817#9 23921882#0 23921882#1 197678461#0 197678461#1 4408744#1 4408744#2 236721922#0"/>
    </vehicle>
    <vehicle id="20" depart="20.00">
        <route edges="265084413 299749393 197678467 299749390#0 651362343 302666746#0 302666746#1 302666746#2 302666746#3 302666743#0 685765581#0 685765581#1 685765581#2 685765579#0 685765579#1 8575236#0 8575236#1 -223333635"/>
    </vehicle>
    <vehicle id="21" depart="21.00">
        <route edges="-4408744#1 197678458#0 651362343 302666746#0 302666746#1 302666746#2 302666746#3 302666743#0 685765581#0 685765581#1 685765581#2 685765579#0 685765579#1 -685997307"/>
    </vehicle>
    <vehicle id="22" depart="22.00">
        <route edges="-223333681#2 223333681#2 -8071144#0 778158671 671109817#6 671109817#7 671109817#8 671109817#9 23921882#0 23921882#1 197678461#0 197678461#1 4408744#1 4408744#2 4408744#3 -223333647#3 -223333647#1 -268280780"/>
    </vehicle>
    <vehicle id="23" depart="23.00">
        <route edges="-223333697#1 685765579#0 -685765577#0"/>
    </vehicle>
    <vehicle id="24" depart="24.00">
        <route edges="23730370#8 -23730370#8 -23730370#7 -23730370#6 -23730370#5 -23730370#4 -23730370#3 1142249270#1 1142249270#2 1142249270#3 1142249270#4 671109817#2 671109817#3 671109817#4 671109817#5 671109817#6 671109817#7 671109817#8 671109817#9 23921882#0 23921882#1 651362343 302666746#0 302666746#1 302666746#2 302666746#3 302666743#0 685765581#0 685765581#1 685765581#2 685765579#0 685765579#1 8575236#0 8575236#1 8575236#2 685772908#1 137141225#0 137141225#1 137141225#2 137141225#3 137141225#4"/>
    </vehicle>
    <vehicle id="25" depart="25.00">
        <route edges="137141225#4 -298699449 -4408744#6 -4408744#5 -4408744#4 -4408744#3 -4408744#2 -4408744#1 197678458#0 265084413 299749393 299749397#0 299749397#1 299749397#2 -23730370#8"/>
    </vehicle>
    <vehicle id="26" depart="26.00">
        <route edges="-684420995#2 -684420995#1 684420997 298699445#1 252388729 137141225#2 -499615983 685997308 223333721#0 223333721#1 685997310#0"/>
    </vehicle>
    <vehicle id="27" depart="27.00">
        <route edges="23924358 330859425#2 -298699449 -4408744#6 -4408744#5 -4408744#4 -4408744#3 -4408744#2 -4408744#1 197678458#0 265084413 299749393 299749397#0 299749397#1 299749397#2 -23730370#8 -23730370#7 -23730370#6 -23730370#5 23730370#5"/>
    </vehicle>
    <vehicle id="28" depart="28.00">
        <route edges="-23730370#1 23730370#1 260770898#5 260770898#6 260770898#7 260770898#8 671109817#0 671109817#1 671109817#2 671109817#3 671109817#4 671109817#5 671109817#6 671109817#7 671109817#8 671109817#9 23921882#0 23921882#1 197678461#0 197678461#1 4408744#1 4408744#2 4408744#3 4408744#4 4408744#5 4408744#6 4408744#7 684420997 298699445#1 298699445#2 298699445#3 300128902"/>
    </vehicle>
    <vehicle id="29" depart="29.00">
        <route edges="-223335370#2 223335370#2 197598189#3"/>
    </vehicle>
    <vehicle id="30" depart="30.00">
        <route edges="985000006#2 651362341#0 671109817#0 671109817#1 671109817#2 671109817#3 671109817#4 671109817#5 671109817#6 671109817#7 671109817#8 671109817#9 23921882#0 23921882#1 651362343 302666746#0 302666746#1 302666746#2 302666746#3 302666743#0 685765581#0 685765581#1 685765581#2 685765579#0 685765579#1 8575236#0 8575236#1 8575236#2 685772908#1 137141225#0 137141225#1 137141225#2 137141225#3 252388728"/>
    </vehicle>
    <vehicle id="31" depart="31.00">
        <route edges="223333721#1 223333697#3 4408744#3 -223333647#3 268280780"/>
    </vehicle>
    <vehicle id="33" depart="33.00">
        <route edges="-4408744#1 197678458#0 265084413 299749393 299749397#0 299749397#1 299749397#2 -23730370#8 -23730370#7 -23730370#6 -23730370#5 -23730370#4 -23730370#3 -23730370#2 -23730370#1 -651362340#3 -197598660#0"/>
    </vehicle>
    <vehicle id="34" depart="34.00">
        <route edges="-8095485#0 671109817#8 671109817#9 4367113#0 299749393 299749397#0 299749397#1 299749397#2 -23730370#8 -23730370#7 -23730370#6 -23730370#5 -23730370#4 -23730370#3 -23730370#2 -23730370#1 -651362340#3 -651362340#2"/>
    </vehicle>
    <vehicle id="35" depart="35.00">
        <route edges="-260770898#9 260770898#8 671109817#0 671109817#1 671109817#2 671109817#3 251383355#0 251383355#1 778158671"/>
    </vehicle>
    <vehicle id="36" depart="36.00">
        <route edges="671109817#8 671109817#9 23921882#0 23921882#1 651362343 302666746#0 -685997309 -685997310#1 -685997310#0 -223333721#1 -223333721#0 -8082814#0"/>
    </vehicle>
    <vehicle id="37" depart="37.00">
        <route edges="251383355#0 251383355#1 8071144#0 197598659#0 197598659#1"/>
    </vehicle>
    <vehicle id="38" depart="38.00">
        <route edges="685765581#0 223333702#1 223333702#2 223333702#3 259085025#0 259085025#1 223333718#5 223333718#6 -223333656#0 223333656#0"/>
    </vehicle>
    <vehicle id="39" depart="39.00">
        <route edges="-684420995#1 -298699449 -4408744#6 -4408744#5 -4408744#4 -4408744#3"/>
    </vehicle>
    <vehicle id="40" depart="40.00">
        <route edges="223335354#0 368669404#0 368669404#1 368669404#2 368669404#3 368669404#4 985000006#2 651362340#0 651362340#1 -651362340#1"/>
    </vehicle>
    <vehicle id="41" depart="41.00">
        <route edges="223335369#3 299749398#1 197678459 302666743#0 685765581#0 685765581#1 685765581#2 685765579#0 685765577#1"/>
    </vehicle>
    <vehicle id="42" depart="42.00">
        <route edges="197598658#2 299749397#2 -23730370#8 -23730370#7 -23730370#6 -23730370#5 -23730370#4 -23730370#3 -23730370#2 260770898#5 -260770898#5"/>
    </vehicle>
    <vehicle id="43" depart="43.00">
        <route edges="985000008#2 223335369#0 223335369#1 223335369#2 223335369#3 299749398#1 197678459 302666743#0 685765581#0 223333702#1 223333702#2"/>
    </vehicle>
    <vehicle id="44" depart="44.00">
        <route edges="-223333688#1 8575236#1 8575236#2 685772908#1 137141225#0 137141225#1 137141225#2 137141225#3 137141225#4 684421002#0 23726127#0 223333647#0 -223333647#0"/>
    </vehicle>
    <vehicle id="45" depart="45.00">
        <route edges="-223333702#1 685765581#1 685765581#2 685765579#0 685765579#1 8575236#0 8575236#1 8575236#2 685772908#1 137141225#0 137141225#1 137141225#2 137141225#3 137141225#4 684421002#0 684421002#1 23924358"/>
    </vehicle>
    <vehicle id="46" depart="46.00">
        <route edges="330859425#1 330859425#2 684421002#0 23726127#0 23726127#1 23726127#2 104749654#2 104749654#3 104749654#4 302666738#3 299749390#0 651362343 302666746#0 302666746#1 223335354#0 368669404#0 -223335365#1 223335369#3 299749398#1 197678459"/>
    </vehicle>
    <vehicle id="47" depart="47.00">
        <route edges="-223333656#0 302666738#2 302666738#3 299749390#0 651362343 302666746#0 302666746#1 223335354#0 368669404#0 368669404#1 368669404#2 197598189#2 197598189#3"/>
    </vehicle>
    <vehicle id="48" depart="48.00">
        <route edges="985000008#1 368669404#4 985000006#2 651362341#0 671109817#0 671109817#1 671109817#2 671109817#3 671109817#4 671109817#5 671109817#6 671109817#7 671109817#8 671109817#9 23921882#0 23921882#1 197678461#0 197678461#1 259085025#0 259085025#1 223333718#5"/>
    </vehicle>
    <vehicle id="49" depart="49.00">
        <route edges="8095485#1 368669404#2 197598189#2 197598189#3 671109817#5"/>
    </vehicle>
    <vehicle id="50" depart="50.00">
        <route edges="-197598189#3 197598189#3 671109817#5 671109817#6 671109817#7 671109817#8 671109817#9 4367113#0 299749393 299749397#0 299749397#1 299749397#2"/>
    </vehicle>
    <vehicle id="51" depart="51.00">
        <route edges="260770898#7 260770898#8 671109817#0 671109817#1 671109817#2 671109817#3 671109817#4 671109817#5 671109817#6 671109817#7 671109817#8 671109817#9 23921882#0 23921882#1 651362343 302666746#0 -685997309 -685997310#1 -685997310#0 -223333721#1 -223333721#0 223333721#0"/>
    </vehicle>
    <vehicle id="52" depart="52.00">
        <route edges="-684420995#2 -684420995#1 684420997 298699445#1 252388729 137141225#2 137141225#3 252388728"/>
    </vehicle>
    <vehicle id="53" depart="53.00">
        <route edges="-223333702#1 223333702#1 223333702#2 223333702#3 197678458#0 265084413 299749393 299749397#0 299749397#1 299749397#2 -23730370#8 -23730370#7 -23730370#6 -23730370#5 223333638"/>
    </vehicle>
    <vehicle id="54" depart="54.00">
        <route edges="223333647#1 223333647#3 -4408744#3 -4408744#2 -4408744#1 197678458#0 265084413 299749393 299749397#0 299749397#1 299749397#2 -23730370#8 -23730370#7 -23730370#6 -23730370#5 -23730370#4 8071144#5"/>
    </vehicle>
    <vehicle id="55" depart="55.00">
        <route edges="671109817#7 8095485#0 8095485#1 368669404#2 368669404#3 368669404#4 985000006#2 651362340#0 651362340#1 -651362340#1"/>
    </vehicle>
    <vehicle id="56" depart="56.00">
        <route edges="223333688#3 685997308 223333721#0 223333721#1 685997310#0 685997310#1 685997309 302666746#1 223335354#0 368669404#0 368669404#1 368669404#2 197598189#2 223335370#3 -223335370#3"/>
    </vehicle>
    <vehicle id="57" depart="57.00">
        <route edges="685765579#1 -685997307 260865763#1 260865763#2 260865763#3 260865763#4 223333702#2 685997309 302666746#1 223335354#0 368669404#0 368669404#1 -8095485#1 -8095485#0 671109817#8"/>
    </vehicle>
    <vehicle id="58" depart="58.00">
        <route edges="-8071144#0 778158671 671109817#6 671109817#7 671109817#8 671109817#9 23921882#0 23921882#1 651362343 302666746#0 302666746#1 302666746#2 302666746#3 302666743#0 685765581#0 685765581#1 685765581#2 685765579#0 685765579#1 8575236#0 8575236#1 8575236#2 685772908#1 137141225#0 137141225#1 137141225#2 137141225#3 252388728"/>
    </vehicle>
    <vehicle id="59" depart="59.00">
        <route edges="23726127#2 104749654#2 104749654#3 -223333718#5 -223333718#4 -223333718#0 4408744#4 -685765578#1 -223333721#0"/>
    </vehicle>
    <vehicle id="60" depart="60.00">
        <route edges="302666739#0 197678461#0 197678461#1 4408744#1 4408744#2 -223333697#3 -223333721#1 223333721#1"/>
    </vehicle>
    <vehicle id="61" depart="61.00">
        <route edges="302666747#0 302666747#1 302666747#2 1078922930 302666739#0 197678461#0 197678461#1 259085025#0 259085025#1 223333718#5"/>
    </vehicle>
    <vehicle id="62" depart="62.00">
        <route edges="-195304951 330859425#1 330859425#2 684421002#0 23726127#0 23726127#1 23726127#2 104749654#2 104749654#3 104749654#4 302666738#3 299749390#0 651362343 302666746#0 302666746#1 223335354#0 368669404#0 368669404#1 8095485#2 -8095485#2"/>
    </vehicle>
    <vehicle id="63" depart="63.00">
        <route edges="-197598658#2 -197598658#1 -197598658#0 -8071144#2 -8071144#0 778158671 671109817#6 671109817#7 671109817#8 671109817#9 23921882#0 23921882#1 651362343 302666746#0 302666746#1 302666746#2 302666746#3 302666743#0 685765581#0 685765581#1 685765581#2 685765579#0 685765579#1 -685997307 685997307"/>
    </vehicle>
    <vehicle id="64" depart="64.00">
        <route edges="671109817#8 671109817#9 4367113#0 299749393 299749397#0 223333681#0 223333681#1 223333681#2 197598659#0 197598659#1 197598659#2 651362340#2"/>
    </vehicle>
    <vehicle id="65" depart="65.00">
        <route edges="-8071144#5 -8071144#4 -8071144#2 -8071144#0 778158671 671109817#6 671109817#7 671109817#8 671109817#9 23921882#0 23921882#1 197678461#0 197678461#1 259085025#0 -223333649#1"/>
    </vehicle>
    <vehicle id="66" depart="66.00">
        <route edges="671109817#8 671109817#9 4367113#0 299749393 299749397#0 223333681#0 223333681#1 223333681#2 -8071144#0 8071144#0"/>
    </vehicle>
    <vehicle id="67" depart="67.00">
        <route edges="-223333682#1 -223333682#0 223333681#1 223333681#2 -8071144#0 778158671 671109817#6 671109817#7 671109817#8 671109817#9 23921882#0 23921882#1 651362343 302666746#0 302666746#1 302666746#2 302666746#3 302666743#0 685765581#0 685765581#1 685765581#2 685765579#0 685765579#1 8575236#0 223333688#1"/>
    </vehicle>
    <vehicle id="68" depart="68.00">
        <route edges="-223333658#1 223333658#1 302666738#1 302666738#2 302666738#3 299749390#0 651362343 302666746#0 302666746#1 302666746#2 302666746#3"/>
    </vehicle>
    <vehicle id="69" depart="69.00">
        <route edges="302666743#0 685765581#0 685765581#1 223333704#1 -223333704#1"/>
    </vehicle>
    <vehicle id="70" depart="70.00">
        <route edges="223333658#1 302666738#1 302666738#2 302666738#3 299749390#0 651362343 302666746#0 302666746#1 223335354#0 368669404#0 -223335365#1 223335365#1"/>
    </vehicle>
    <vehicle id="71" depart="71.00">
        <route edges="-684420995#1 684421002#0 23726127#0 23726127#1 23726127#2 104749654#2 104749654#3 104749654#4 302666738#3 299749390#0 651362343 302666746#0 302666746#1 223335354#0 368669404#0 368669404#1 -8095485#1 -8095485#0 671109817#8 671109817#9"/>
    </vehicle>
    <vehicle id="72" depart="72.00">
        <route edges="197598745#0 -651362340#0 651362341#0 671109817#0 671109817#1 671109817#2 671109817#3 671109817#4 671109817#5 671109817#6 671109817#7 671109817#8 671109817#9 23921882#0 23921882#1 197678461#0 197678461#1 259085025#0 -259085025#0"/>
    </vehicle>
    <vehicle id="73" depart="73.00">
        <route edges="223333718#0 -223333718#0 4408744#4 4408744#5 4408744#6 4408744#7 684420997 298699445#1 298699445#2 298699445#3 300128902"/>
    </vehicle>
    <vehicle id="74" depart="74.00">
        <route edges="-259085025#1 -259085025#0 197678458#0 265084413 299749393 299749397#0 299749397#1 299749397#2 -23730370#8 -23730370#7 -23730370#6 -23730370#5 -23730370#4 -8071144#4"/>
    </vehicle>
    <vehicle id="75" depart="75.00">
        <route edges="985000008#1 368669404#4 985000006#2 651362341#0 671109817#0 671109817#1 671109817#2 671109817#3 671109817#4 671109817#5 671109817#6 671109817#7 671109817#8 671109817#9 23921882#0 23921882#1 197678461#0 197678461#1 259085025#0 259085025#1"/>
    </vehicle>
    <vehicle id="76" depart="76.00">
        <route edges="197678461#1 4408744#1 -223333704#3 -223333704#2 223333704#2"/>
    </vehicle>
    <vehicle id="77" depart="77.00">
        <route edges="-223333704#1 223333704#1 260865763#4 223333702#2 685997309 302666746#1 223335354#0 368669404#0 368669404#1 368669404#2 368669404#3 368669404#4 985000006#2 651362341#0 -260770898#9 -260770898#7"/>
    </vehicle>
    <vehicle id="78" depart="78.00">
        <route edges="104749654#4 302666738#3 299749390#0 197678461#0 197678461#1 4408744#1 4408744#2 4408744#3 4408744#4 4408744#5 4408744#6 4408744#7 684421002#0 23726127#0"/>
    </vehicle>
    <vehicle id="79" depart="79.00">
        <route edges="-4408744#1 197678458#0 265084413 299749393 299749397#0 299749397#1 299749397#2 -23730370#8 -23730370#7 -23730370#6 -23730370#5 -23730370#4 -23730370#3 -23730370#2 260770898#5 -260770898#5"/>
    </vehicle>
    <vehicle id="80" depart="80.00">
        <route edges="-223333658#1 223333658#1 302666738#1 302666738#2 302666738#3 299749390#0 651362343 302666746#0 302666746#1 223335354#0 368669404#0 368669404#1 368669404#2 368669404#3 368669404#4 985000006#2 651362341#0 671109817#0 671109817#1 671109817#2 671109817#3 251383355#0"/>
    </vehicle>
    <vehicle id="81" depart="81.00">
        <route edges="-4408744#1 197678458#0 651362343 302666746#0 302666746#1 302666746#2 302666746#3 302666743#0 685765581#0 685765581#1 685765581#2 685765579#0"/>
    </vehicle>
    <vehicle id="82" depart="82.00">
        <route edges="671109817#2 671109817#3 671109817#4 671109817#5 671109817#6 671109817#7 671109817#8 671109817#9 23921882#0 23921882#1 197678461#0 197678461#1 259085025#0 259085025#1 223333718#5 223333718#6 223333718#7 223333658#1 -223333658#1"/>
    </vehicle>
    <vehicle id="83" depart="83.00">
        <route edges="-4408744#4 4408744#4 -685765578#1 -685765578#0 260865763#2"/>
    </vehicle>
    <vehicle id="84" depart="84.00">
        <route edges="-268280780 223333647#3 -4408744#3 -4408744#2 -223333704#3 -223333704#2"/>
    </vehicle>
    <vehicle id="85" depart="85.00">
        <route edges="685997308 223333721#0 223333721#1 685997310#0 685997310#1 685997309 302666746#1 223335354#0 302666747#1 223335370#0 223335370#1"/>
    </vehicle>
    <vehicle id="86" depart="86.00">
        <route edges="223333658#1 302666738#1 302666738#2 302666738#3 299749390#0 651362343 302666746#0 302666746#1 223335354#0 368669404#0 368669404#1"/>
    </vehicle>
    <vehicle id="87" depart="87.00">
        <route edges="368669404#4 985000006#2 651362341#0 -260770898#9 -260770898#7 -260770898#6 -260770898#5 23730370#2 -23730370#2"/>
    </vehicle>
    <vehicle id="88" depart="88.00">
        <route edges="-223333688#3 -223333688#2 260865763#0 260865763#1 260865763#2 260865763#3 260865763#4 223333702#2 223333702#3 197678458#0 265084413 299749393 197678467"/>
    </vehicle>
    <vehicle id="89" depart="89.00">
        <route edges="197598745#0 -651362340#0 651362341#0 671109817#0 671109817#1 671109817#2 671109817#3 671109817#4 671109817#5 671109817#6 671109817#7 671109817#8 671109817#9 4367113#0 299749393 299749397#0 223333681#0"/>
    </vehicle>
    <vehicle id="90" depart="90.00">
        <route edges="298699445#4 685772908#1 685997305 260865763#0 260865763#1 260865763#2 260865763#3"/>
    </vehicle>
    <vehicle id="91" depart="91.00">
        <route edges="985000006#0 985000006#1 985000006#2 651362341#0 671109817#0 671109817#1 671109817#2 671109817#3 671109817#4 671109817#5 671109817#6 671109817#7 671109817#8 671109817#9 23921882#0 23921882#1 651362343 302666746#0 -685997309 -685997310#1 -685997310#0 -223333721#1 -223333721#0 -685997308 -223333688#3"/>
    </vehicle>
    <vehicle id="92" depart="92.00">
        <route edges="197598659#0 1142249270#3 1142249270#4 671109817#2 671109817#3 671109817#4 671109817#5 671109817#6 671109817#7 671109817#8 671109817#9 23921882#0 23921882#1 651362343 197678468 1078922930"/>
    </vehicle>
    <vehicle id="93" depart="93.00">
        <route edges="671109817#3 671109817#4 671109817#5 671109817#6 671109817#7 671109817#8 671109817#9 23921882#0 23921882#1 197678461#0 197678461#1 4408744#1 4408744#2 4408744#3 4408744#4 -4408744#4"/>
    </vehicle>
    <vehicle id="94" depart="94.00">
        <route edges="-23730370#8 -23730370#7 -23730370#6 -23730370#5 -23730370#4 -23730370#3 1142249270#1 1142249270#2 1142249270#3 1142249270#4 671109817#2 671109817#3 671109817#4 671109817#5 671109817#6 671109817#7 671109817#8 671109817#9 23921882#0 23921882#1 197678461#0 197678461#1 259085025#0 -223333649#1 223333649#1"/>
    </vehicle>
    <vehicle id="95" depart="95.00">
        <route edges="197598745#0 -651362340#0 651362341#0 671109817#0 671109817#1 671109817#2 671109817#3 671109817#4 671109817#5 671109817#6 671109817#7 671109817#8 671109817#9 23921882#0 23921882#1 651362343 302666746#0 302666746#1 302666746#2 302666746#3 302666743#0 685765581#0 685765581#1 685765581#2 685765579#0 -685765577#0"/>
    </vehicle>
    <vehicle id="96" depart="96.00">
        <route edges="-651362340#0 651362341#0 671109817#0 671109817#1 671109817#2 671109817#3 671109817#4 671109817#5 671109817#6 671109817#7 671109817#8 671109817#9 23921882#0 23921882#1 651362343 302666746#0 302666746#1 302666746#2 302666746#3 302666743#0 685765581#0 685765581#1 685765581#2 685765579#0 685765579#1 8575236#0 8575236#1 8575236#2 685772908#1 685997305"/>
    </vehicle>
    <vehicle id="97" depart="97.00">
        <route edges="197678467 299749390#0 651362343 302666746#0 302666746#1 223335354#0 368669404#0 368669404#1 368669404#2 197598189#2 197598189#3 671109817#5"/>
    </vehicle>
    <vehicle id="98" depart="98.00">
        <route edges="223333718#6 -223333718#6 -223333718#5 -223333718#4 -223333718#0 -223333647#3 -223333647#1"/>
    </vehicle>
    <vehicle id="99" depart="99.00">
        <route edges="985000008#2 223335369#0 197598189#1 368669404#3 368669404#4 985000006#2 651362340#0 651362340#1 651362340#2 651362340#3"/>
    </vehicle>
    <vehicle id="100" depart="100.00">
        <route edges="8095485#1 8095485#2 223335369#2 223335369#3 299749398#1 197678459 302666743#0 685765581#0 685765581#1 685765581#2 685765579#0 685765579#1 685997306"/>
    </vehicle>
    <vehicle id="101" depart="101.00">
        <route edges="651362341#0 671109817#0 671109817#1 671109817#2 671109817#3 671109817#4 671109817#5 671109817#6 671109817#7 8095485#0 -223335370#1 -223335365#2"/>
    </vehicle>
    <vehicle id="102" depart="102.00">
        <route edges="223333682#0 -197598658#1 -197598658#0 -8071144#2 -8071144#0 778158671 671109817#6 671109817#7 671109817#8 671109817#9 23921882#0 23921882#1 197678461#0 197678461#1 259085025#0 259085025#1 -259085025#1"/>
    </vehicle>
    <vehicle id="103" depart="103.00">
        <route edges="197598659#0 -197598659#0 -223333681#2 223333654#0 -223333654#0"/>
    </vehicle>
    <vehicle id="105" depart="105.00">
        <route edges="-684420995#2 -684420995#1 684421002#0 23726127#0 23726127#1 23726127#2 104749654#2 104749654#3 104749654#4 302666738#3 299749390#0 651362343 302666746#0 302666746#1 223335354#0 368669404#0"/>
    </vehicle>
    <vehicle id="106" depart="106.00">
        <route edges="223333647#1 223333647#3 -4408744#3 -4408744#2 -4408744#1 197678458#0 197678461#0"/>
    </vehicle>
    <vehicle id="107" depart="107.00">
        <route edges="8071144#4 -23730370#3 1142249270#1 1142249270#2 1142249270#3 1142249270#4 985000008#0 985000008#1 985000008#2"/>
    </vehicle>
    <vehicle id="108" depart="108.00">
        <route edges="223333721#0 223333721#1 223333697#3 -4408744#2 -4408744#1 197678458#0 265084413 299749393 299749397#0 299749397#1"/>
    </vehicle>
    <vehicle id="109" depart="109.00">
        <route edges="-223335365#2 223335365#2 -223335370#0 302666747#2 1078922930 302666739#0 265084413 299749393 197678467 299749390#0 651362343 302666746#0 -685997309"/>
    </vehicle>
    <vehicle id="110" depart="110.00">
        <route edges="8095485#1 -8095485#1 -8095485#0 671109817#8 671109817#9 23921882#0 23921882#1 197678461#0 197678461#1 4408744#1 4408744#2 236721922#0"/>
    </vehicle>
    <vehicle id="111" depart="111.00">
        <route edges="223333718#4 -259085025#1 -259085025#0 197678458#0 651362343 302666746#0 302666746#1 302666746#2 302666746#3 302666743#0 302666743#1"/>
    </vehicle>
    <vehicle id="113" depart="113.00">
        <route edges="223333688#4 -4408744#6 -4408744#5 -4408744#4 -4408744#3 -4408744#2 -4408744#1 197678458#0 651362343 302666746#0 302666746#1 223335354#0 368669404#0 368669404#1 368669404#2 368669404#3 368669404#4 985000006#2 651362341#0 671109817#0 671109817#1 671109817#2"/>
    </vehicle>
    <vehicle id="114" depart="114.00">
        <route edges="-223335370#0 302666747#2 1078922930 302666739#0 197678461#0 197678461#1 4408744#1 4408744#2 4408744#3 4408744#4 4408744#5 8082814#0 8082814#1"/>
    </vehicle>
    <vehicle id="115" depart="115.00">
        <route edges="-223333681#2 223333654#0 223333654#1 -23730370#5 -23730370#4 -23730370#3 -23730370#2 -23730370#1 -23730370#0"/>
    </vehicle>
    <vehicle id="116" depart="116.00">
        <route edges="223335370#3 -223335370#3 197598189#3 671109817#5 671109817#6 671109817#7 671109817#8 671109817#9 23921882#0 23921882#1 651362343 302666746#0 302666746#1 302666746#2 302666746#3 302666743#0 685765581#0 685765581#1 223333704#1 260865763#4"/>
    </vehicle>
    <vehicle id="117" depart="117.00">
        <route edges="-4408744#3 -4408744#2 -223333704#3 685997310#1 -223333702#2"/>
    </vehicle>
    <vehicle id="118" depart="118.00">
        <route edges="684420997 298699445#1 252388729 137141225#2 137141225#3 137141225#4 -298699449 -4408744#6 -4408744#5 -4408744#4 -4408744#3"/>
    </vehicle>
    <vehicle id="119" depart="119.00">
        <route edges="223335370#3 -223335370#3 197598189#3 671109817#5 671109817#6 671109817#7 671109817#8 671109817#9 23921882#0 23921882#1 197678461#0 197678461#1 4408744#1 4408744#2 4408744#3 4408744#4 4408744#5 4408744#6 4408744#7 684420995#0 684420995#2 238615883"/>
    </vehicle>
    <vehicle id="121" depart="121.00">
        <route edges="223333702#2 685997309"/>
    </vehicle>
    <vehicle id="122" depart="122.00">
        <route edges="-260770898#5 260770898#5 260770898#6 260770898#7 260770898#8 671109817#0 671109817#1 671109817#2 671109817#3 671109817#4 671109817#5 671109817#6 671109817#7 671109817#8 671109817#9 4367113#0 299749393 299749397#0"/>
    </vehicle>
    <vehicle id="123" depart="123.00">
        <route edges="-4408744#4 -4408744#3 -4408744#2 -4408744#1 197678458#0 265084413 299749393 299749397#0 223333681#0 223333681#1 223333681#2 197598659#0 197598659#1"/>
    </vehicle>
    <vehicle id="124" depart="124.00">
        <route edges="260770898#0 260770898#5 260770898#6 260770898#7 260770898#8 671109817#0 671109817#1 671109817#2 671109817#3 671109817#4 671109817#5 671109817#6 671109817#7 671109817#8 671109817#9 23921882#0 23921882#1 651362343 302666746#0 -685997309 -685997310#1 -685997310#0"/>
    </vehicle>
    <vehicle id="125" depart="125.00">