<?xml version="1.0" encoding="UTF-8"?>

<!-- generated on Sex 23 Abr 2021 18:22:47 -03 by Eclipse SUMO netedit Version 1.2.0
<configuration xmlns:xsi="http://www.w3.org/2001/XMLSchema-instance" xsi:noNamespaceSchemaLocation="http://sumo.dlr.de/xsd/netconvertConfiguration.xsd">

    <input>
        <sumo-net-file value="/home/margaretesa/simulation/omnetpp-5.5.1/samples/veins/examples/veins/Crossing.net.xml"/>
    </input>

    <output>
        <output-file value="/home/margaretesa/simulation/omnetpp-5.5.1/samples/veins/examples/veins/Crossing.net.xml"/>
    </output>

    <processing>
        <geometry.max-grade.fix value="false"/>
        <offset.disable-normalization value="true"/>
        <lefthand value="false"/>
    </processing>

    <junctions>
        <no-turnarounds value="true"/>
        <junctions.corner-detail value="0"/>
        <junctions.limit-turn-speed value="-1"/>
        <rectangular-lane-cut value="false"/>
    </junctions>

    <pedestrian>
        <walkingareas value="false"/>
    </pedestrian>

</configuration>
-->

<net version="1.1" xmlns:xsi="http://www.w3.org/2001/XMLSchema-instance" xsi:noNamespaceSchemaLocation="http://sumo.dlr.de/xsd/net_file.xsd">

    <location netOffset="0.00,0.00" convBoundary="0.00,-2213.18,4510.00,2372.05" origBoundary="-10000000000.00,-10000000000.00,10000000000.00,10000000000.00" projParameter="!"/>

    <edge id=":gneJ17_0" function="internal">
        <lane id=":gneJ17_0_0" index="0" speed="15.00" length="12.10" width="5.00" shape="2237.50,57.73 2237.03,54.45 2235.62,52.11 2233.28,50.70 2230.00,50.23"/>
    </edge>
    <edge id=":gneJ17_1" function="internal">
        <lane id=":gneJ17_1_0" index="0" speed="15.00" length="30.01" width="5.00" shape="2237.50,57.73 2237.51,27.72"/>
        <lane id=":gneJ17_1_1" index="1" speed="15.00" length="30.01" width="5.00" shape="2242.50,57.73 2242.51,27.73"/>
    </edge>
    <edge id=":gneJ17_3" function="internal">
        <lane id=":gneJ17_3_0" index="0" speed="15.00" length="28.23" width="5.00" shape="2242.50,57.73 2243.59,50.07 2246.88,44.60 2252.35,41.32 2260.00,40.23"/>
    </edge>
    <edge id=":gneJ17_4" function="internal">
        <lane id=":gneJ17_4_0" index="0" speed="15.00" length="12.10" width="5.00" shape="2260.00,50.23 2256.72,50.70 2254.38,52.11 2252.97,54.45 2252.50,57.73"/>
    </edge>
    <edge id=":gneJ17_5" function="internal">
        <lane id=":gneJ17_5_0" index="0" speed="15.00" length="30.00" width="5.00" shape="2260.00,50.23 2230.00,50.23"/>
        <lane id=":gneJ17_5_1" index="1" speed="15.00" length="30.00" width="5.00" shape="2260.00,45.23 2230.00,45.23"/>
    </edge>
    <edge id=":gneJ17_7" function="internal">
        <lane id=":gneJ17_7_0" index="0" speed="15.00" length="10.47" width="5.00" shape="2260.00,45.23 2252.35,44.14 2250.00,42.73"/>
    </edge>
    <edge id=":gneJ17_16" function="internal">
        <lane id=":gneJ17_16_0" index="0" speed="15.00" length="17.76" width="5.00" shape="2250.00,42.73 2246.88,40.85 2243.60,35.38 2242.51,27.73"/>
    </edge>
    <edge id=":gneJ17_8" function="internal">
        <lane id=":gneJ17_8_0" index="0" speed="15.00" length="12.10" width="5.00" shape="2252.51,27.73 2252.97,31.01 2254.38,33.35 2256.72,34.76 2260.00,35.23"/>
    </edge>
    <edge id=":gneJ17_9" function="internal">
        <lane id=":gneJ17_9_0" index="0" speed="15.00" length="30.00" width="5.00" shape="2252.51,27.73 2252.50,57.73"/>
        <lane id=":gneJ17_9_1" index="1" speed="15.00" length="30.00" width="5.00" shape="2247.51,27.73 2247.50,57.73"/>
    </edge>
    <edge id=":gneJ17_11" function="internal">
        <lane id=":gneJ17_11_0" index="0" speed="15.00" length="28.23" width="5.00" shape="2247.51,27.73 2246.41,35.38 2243.13,40.85 2237.66,44.14 2230.00,45.23"/>
    </edge>
    <edge id=":gneJ17_12" function="internal">
        <lane id=":gneJ17_12_0" index="0" speed="15.00" length="12.10" width="5.00" shape="2230.00,35.23 2233.28,34.76 2235.63,33.35 2237.04,31.01 2237.51,27.72"/>
    </edge>
    <edge id=":gneJ17_13" function="internal">
        <lane id=":gneJ17_13_0" index="0" speed="15.00" length="30.00" width="5.00" shape="2230.00,35.23 2260.00,35.23"/>
        <lane id=":gneJ17_13_1" index="1" speed="15.00" length="30.00" width="5.00" shape="2230.00,40.23 2260.00,40.23"/>
    </edge>
    <edge id=":gneJ17_15" function="internal">
        <lane id=":gneJ17_15_0" index="0" speed="15.00" length="10.47" width="5.00" shape="2230.00,40.23 2237.66,41.32 2240.00,42.73"/>
    </edge>
    <edge id=":gneJ17_17" function="internal">
        <lane id=":gneJ17_17_0" index="0" speed="15.00" length="17.76" width="5.00" shape="2240.00,42.73 2243.12,44.61 2246.41,50.07 2247.50,57.73"/>
    </edge>
    <edge id=":gneJ18_0" function="internal">
        <lane id=":gneJ18_0_0" index="0" speed="15.00" length="0.10" width="5.00" shape="2237.50,2355.71 2237.50,2355.71"/>
        <lane id=":gneJ18_0_1" index="1" speed="15.00" length="0.10" width="5.00" shape="2242.50,2355.71 2242.50,2355.71"/>
    </edge>
    <edge id=":gneJ18_2" function="internal">
        <lane id=":gneJ18_2_0" index="0" speed="15.00" length="0.10" width="5.00" shape="2252.50,2355.71 2252.50,2355.71"/>
        <lane id=":gneJ18_2_1" index="1" speed="15.00" length="0.10" width="5.00" shape="2247.50,2355.71 2247.50,2355.71"/>
    </edge>
    <edge id=":gneJ19_0" function="internal">
        <lane id=":gneJ19_0_0" index="0" speed="15.00" length="0.30" width="5.00" shape="2238.34,-2198.85,27.00 2238.34,-2199.15,27.00"/>
        <lane id=":gneJ19_0_1" index="1" speed="15.00" length="0.30" width="5.00" shape="2243.34,-2198.85,27.00 2243.34,-2199.15,27.00"/>
    </edge>
    <edge id=":gneJ19_2" function="internal">
        <lane id=":gneJ19_2_0" index="0" speed="15.00" length="0.30" width="5.00" shape="2253.34,-2199.15,27.00 2253.34,-2198.85,27.00"/>
        <lane id=":gneJ19_2_1" index="1" speed="15.00" length="0.30" width="5.00" shape="2248.34,-2199.15,27.00 2248.34,-2198.85,27.00"/>
    </edge>
    <edge id=":gneJ7_0" function="internal">
        <lane id=":gneJ7_0_0" index="0" speed="15.00" length="0.10" width="5.00" shape="10.00,50.23 10.00,50.23"/>
        <lane id=":gneJ7_0_1" index="1" speed="15.00" length="0.10" width="5.00" shape="10.00,45.23 10.00,45.23"/>
    </edge>
    <edge id=":gneJ7_2" function="internal">
        <lane id=":gneJ7_2_0" index="0" speed="15.00" length="0.10" width="5.00" shape="10.00,35.23 10.00,35.23"/>
        <lane id=":gneJ7_2_1" index="1" speed="15.00" length="0.10" width="5.00" shape="10.00,40.23 10.00,40.23"/>
    </edge>
    <edge id=":gneJ8_0" function="internal">
        <lane id=":gneJ8_0_0" index="0" speed="15.00" length="0.10" width="5.00" shape="4500.00,50.23 4500.00,50.23"/>
        <lane id=":gneJ8_0_1" index="1" speed="15.00" length="0.10" width="5.00" shape="4500.00,45.23 4500.00,45.23"/>
    </edge>
    <edge id=":gneJ8_2" function="internal">
        <lane id=":gneJ8_2_0" index="0" speed="15.00" length="0.10" width="5.00" shape="4500.00,35.23 4500.00,35.23"/>
        <lane id=":gneJ8_2_1" index="1" speed="15.00" length="0.10" width="5.00" shape="4500.00,40.23 4500.00,40.23"/>
    </edge>

    <edge id="-gneE10" from="gneJ17" to="gneJ18" priority="1" length="2255.00">
        <lane id="-gneE10_0" index="0" speed="15.00" length="2255.00" width="5.00" shape="2252.50,57.73 2252.50,2355.71"/>
        <lane id="-gneE10_1" index="1" speed="15.00" length="2255.00" width="5.00" shape="2247.50,57.73 2247.50,2355.71"/>
    </edge>
    <edge id="-gneE11" from="gneJ17" to="gneJ19" priority="1" length="2255.00">
        <lane id="-gneE11_0" index="0" speed="15.00" length="2255.00" width="5.00" shape="2237.51,27.72 2238.34,-2198.85,27.00"/>
        <lane id="-gneE11_1" index="1" speed="15.00" length="2255.00" width="5.00" shape="2242.51,27.73 2243.34,-2198.85,27.00"/>
    </edge>
    <edge id="-gneE13" from="gneJ23" to="gneJ19" priority="1" length="10.00">
        <lane id="-gneE13_0" index="0" speed="15.00" length="10.00" width="5.00" shape="2253.34,-2213.18 2253.34,-2199.15,27.00"/>
        <lane id="-gneE13_1" index="1" speed="15.00" length="10.00" width="5.00" shape="2248.34,-2213.18 2248.34,-2199.15,27.00"/>
    </edge>
    <edge id="-gneE14" from="gneJ25" to="gneJ18" priority="1" length="10.00">
        <lane id="-gneE14_0" index="0" speed="15.00" length="10.00" width="5.00" shape="2237.50,2372.05 2237.50,2355.71"/>
        <lane id="-gneE14_1" index="1" speed="15.00" length="10.00" width="5.00" shape="2242.50,2372.05 2242.50,2355.71"/>
    </edge>
    <edge id="-gneE4" from="gneJ7" to="gneJ6" priority="1">
        <lane id="-gneE4_0" index="0" speed="15.00" length="10.00" width="5.00" shape="10.00,50.23 0.00,50.23"/>
        <lane id="-gneE4_1" index="1" speed="15.00" length="10.00" width="5.00" shape="10.00,45.23 0.00,45.23"/>
    </edge>
    <edge id="-gneE5.0" from="gneJ8" to="gneJ17" priority="1">
        <lane id="-gneE5.0_0" index="0" speed="15.00" length="2240.00" width="5.00" shape="4500.00,50.23 2260.00,50.23"/>
        <lane id="-gneE5.0_1" index="1" speed="15.00" length="2240.00" width="5.00" shape="4500.00,45.23 2260.00,45.23"/>
    </edge>
    <edge id="-gneE5.2309" from="gneJ17" to="gneJ7" priority="1" length="2255.00">
        <lane id="-gneE5.2309_0" index="0" speed="15.00" length="2255.00" width="5.00" shape="2230.00,50.23 10.00,50.23"/>
        <lane id="-gneE5.2309_1" index="1" speed="15.00" length="2255.00" width="5.00" shape="2230.00,45.23 10.00,45.23"/>
    </edge>
    <edge id="-gneE6" from="gneJ9" to="gneJ8" priority="1">
        <lane id="-gneE6_0" index="0" speed="15.00" length="10.00" width="5.00" shape="4510.00,50.23 4500.00,50.23"/>
        <lane id="-gneE6_1" index="1" speed="15.00" length="10.00" width="5.00" shape="4510.00,45.23 4500.00,45.23"/>
    </edge>
    <edge id="gneE10" from="gneJ18" to="gneJ17" priority="1" length="2255.00">
        <lane id="gneE10_0" index="0" speed="15.00" length="2255.00" width="5.00" shape="2237.50,2355.71 2237.50,57.73"/>
        <lane id="gneE10_1" index="1" speed="15.00" length="2255.00" width="5.00" shape="2242.50,2355.71 2242.50,57.73"/>
    </edge>
    <edge id="gneE11" from="gneJ19" to="gneJ17" priority="1" length="2255.00">
        <lane id="gneE11_0" index="0" speed="15.00" length="2255.00" width="5.00" shape="2253.34,-2198.85,27.00 2252.51,27.73"/>
        <lane id="gneE11_1" index="1" speed="15.00" length="2255.00" width="5.00" shape="2248.34,-2198.85,27.00 2247.51,27.73"/>
    </edge>
    <edge id="gneE13" from="gneJ19" to="gneJ23" priority="1" length="10.00">
        <lane id="gneE13_0" index="0" speed="15.00" length="10.00" width="5.00" shape="2238.34,-2199.15,27.00 2238.34,-2213.18"/>
        <lane id="gneE13_1" index="1" speed="15.00" length="10.00" width="5.00" shape="2243.34,-2199.15,27.00 2243.34,-2213.18"/>
    </edge>
    <edge id="gneE14" from="gneJ18" to="gneJ25" priority="1" length="10.00">
        <lane id="gneE14_0" index="0" speed="15.00" length="10.00" width="5.00" shape="2252.50,2355.71 2252.50,2372.05"/>
        <lane id="gneE14_1" index="1" speed="15.00" length="10.00" width="5.00" shape="2247.50,2355.71 2247.50,2372.05"/>
    </edge>
    <edge id="gneE4" from="gneJ6" to="gneJ7" priority="1">
        <lane id="gneE4_0" index="0" speed="15.00" length="10.00" width="5.00" shape="0.00,35.23 10.00,35.23"/>
        <lane id="gneE4_1" index="1" speed="15.00" length="10.00" width="5.00" shape="0.00,40.23 10.00,40.23"/>
    </edge>
    <edge id="gneE5.0" from="gneJ7" to="gneJ17" priority="1" length="2255.00">
        <lane id="gneE5.0_0" index="0" speed="15.00" length="2255.00" width="5.00" shape="10.00,35.23 2230.00,35.23"/>
        <lane id="gneE5.0_1" index="1" speed="15.00" length="2255.00" width="5.00" shape="10.00,40.23 2230.00,40.23"/>
    </edge>
    <edge id="gneE5.2180" from="gneJ17" to="gneJ8" priority="1">
        <lane id="gneE5.2180_0" index="0" speed="15.00" length="2240.00" width="5.00" shape="2260.00,35.23 4500.00,35.23"/>
        <lane id="gneE5.2180_1" index="1" speed="15.00" length="2240.00" width="5.00" shape="2260.00,40.23 4500.00,40.23"/>
    </edge>
    <edge id="gneE6" from="gneJ8" to="gneJ9" priority="1">
        <lane id="gneE6_0" index="0" speed="15.00" length="10.00" width="5.00" shape="4500.00,35.23 4510.00,35.23"/>
        <lane id="gneE6_1" index="1" speed="15.00" length="10.00" width="5.00" shape="4500.00,40.23 4510.00,40.23"/>
    </edge>

    <junction id="gneJ17" type="priority" x="2245.00" y="42.73" incLanes="gneE10_0 gneE10_1 -gneE5.0_0 -gneE5.0_1 gneE11_0 gneE11_1 gneE5.0_0 gneE5.0_1" intLanes=":gneJ17_0_0 :gneJ17_1_0 :gneJ17_1_1 :gneJ17_3_0 :gneJ17_4_0 :gneJ17_5_0 :gneJ17_5_1 :gneJ17_16_0 :gneJ17_8_0 :gneJ17_9_0 :gneJ17_9_1 :gneJ17_11_0 :gneJ17_12_0 :gneJ17_13_0 :gneJ17_13_1 :gneJ17_17_0" shape="2235.00,57.73 2255.00,57.73 2260.00,52.73 2260.00,32.73 2255.01,27.73 2235.01,27.72 2230.00,32.73 2230.00,52.73" radius="5.00">
        <request index="0"  response="0000000001100000" foes="0000000001100000" cont="0"/>
        <request index="1"  response="1111000011100000" foes="1111100011100000" cont="0"/>
        <request index="2"  response="1111000011100000" foes="1111100011100000" cont="0"/>
        <request index="3"  response="1110011011100000" foes="1110011011100000" cont="0"/>
        <request index="4"  response="0000000000000000" foes="0000011000000000" cont="0"/>
        <request index="5"  response="0000000000000000" foes="1000111000001111" cont="0"/>
        <request index="6"  response="0000000000000000" foes="1000111000001111" cont="0"/>
        <request index="7"  response="0110000000000000" foes="0110111000001110" cont="1"/>
        <request index="8"  response="0110000000000000" foes="0110000000000000" cont="0"/>
        <request index="9"  response="1110000011110000" foes="1110000011111000" cont="0"/>
        <request index="10" response="1110000011110000" foes="1110000011111000" cont="0"/>
        <request index="11" response="1110000011100110" foes="1110000011100110" cont="0"/>
        <request index="12" response="0000000000000000" foes="0000000000000110" cont="0"/>
        <request index="13" response="0000000000000000" foes="0000111110001110" cont="0"/>
        <request index="14" response="0000000000000000" foes="0000111110001110" cont="0"/>
        <request index="15" response="0000000001100000" foes="0000111001101110" cont="1"/>
    </junction>
    <junction id="gneJ18" type="priority" x="2245.00" y="2355.71" incLanes="-gneE14_0 -gneE14_1 -gneE10_0 -gneE10_1" intLanes=":gneJ18_0_0 :gneJ18_0_1 :gneJ18_2_0 :gneJ18_2_1" shape="2235.00,2355.71 2255.00,2355.71 2235.00,2355.71" radius="5.00">
        <request index="0" response="0000" foes="0000" cont="0"/>
        <request index="1" response="0000" foes="0000" cont="0"/>
        <request index="2" response="0000" foes="0000" cont="0"/>
        <request index="3" response="0000" foes="0000" cont="0"/>
    </junction>
    <junction id="gneJ19" type="priority" x="2245.84" y="-2199.00" z="27.00" incLanes="-gneE11_0 -gneE11_1 -gneE13_0 -gneE13_1" intLanes=":gneJ19_0_0 :gneJ19_0_1 :gneJ19_2_0 :gneJ19_2_1" shape="2235.84,-2198.85,27.00 2255.84,-2198.85,27.00 2255.84,-2199.15,27.00 2235.84,-2199.15,27.00" radius="5.00">
        <request index="0" response="0000" foes="0000" cont="0"/>
        <request index="1" response="0000" foes="0000" cont="0"/>
        <request index="2" response="0000" foes="0000" cont="0"/>
        <request index="3" response="0000" foes="0000" cont="0"/>
    </junction>
    <junction id="gneJ23" type="dead_end" x="2245.84" y="-2213.18" incLanes="gneE13_0 gneE13_1" intLanes="" shape="2245.84,-2213.18 2235.84,-2213.18 2245.84,-2213.18" radius="5.00"/>
    <junction id="gneJ25" type="dead_end" x="2245.00" y="2372.05" incLanes="gneE14_0 gneE14_1" intLanes="" shape="2245.00,2372.05 2255.00,2372.05 2245.00,2372.05" radius="5.00"/>
    <junction id="gneJ6" type="dead_end" x="0.00" y="42.73" incLanes="-gneE4_0 -gneE4_1" intLanes="" shape="0.00,42.73 0.00,52.73 0.00,42.73" radius="5.00"/>
    <junction id="gneJ7" type="priority" x="10.00" y="42.73" incLanes="-gneE5.2309_0 -gneE5.2309_1 gneE4_0 gneE4_1" intLanes=":gneJ7_0_0 :gneJ7_0_1 :gneJ7_2_0 :gneJ7_2_1" shape="10.00,52.73 10.00,32.73 10.00,52.73" radius="5.00">
        <request index="0" response="0000" foes="0000" cont="0"/>
        <request index="1" response="0000" foes="0000" cont="0"/>
        <request index="2" response="0000" foes="0000" cont="0"/>
        <request index="3" response="0000" foes="0000" cont="0"/>
    </junction>
    <junction id="gneJ8" type="priority" x="4500.00" y="42.73" incLanes="-gneE6_0 -gneE6_1 gneE5.2180_0 gneE5.2180_1" intLanes=":gneJ8_0_0 :gneJ8_0_1 :gneJ8_2_0 :gneJ8_2_1" shape="4500.00,52.73 4500.00,32.73 4500.00,52.73" radius="5.00">
        <request index="0" response="0000" foes="0000" cont="0"/>
        <request index="1" response="0000" foes="0000" cont="0"/>
        <request index="2" response="0000" foes="0000" cont="0"/>
        <request index="3" response="0000" foes="0000" cont="0"/>
    </junction>
    <junction id="gneJ9" type="dead_end" x="4510.00" y="42.73" incLanes="gneE6_0 gneE6_1" intLanes="" shape="4510.00,42.73 4510.00,32.73 4510.00,42.73" radius="5.00"/>

    <junction id=":gneJ17_16_0" type="internal" x="2250.00" y="42.73" incLanes=":gneJ17_7_0 gneE5.0_0 gneE5.0_1" intLanes=":gneJ17_1_0 :gneJ17_1_1 :gneJ17_3_0 :gneJ17_9_0 :gneJ17_9_1 :gneJ17_11_0 :gneJ17_12_0 :gneJ17_13_0 :gneJ17_13_1"/>
    <junction id=":gneJ17_17_0" type="internal" x="2240.00" y="42.73" incLanes=":gneJ17_15_0 -gneE5.0_0 -gneE5.0_1" intLanes=":gneJ17_1_0 :gneJ17_1_1 :gneJ17_3_0 :gneJ17_4_0 :gneJ17_5_0 :gneJ17_5_1 :gneJ17_9_0 :gneJ17_9_1 :gneJ17_11_0"/>

    <connection from="-gneE10" to="gneE14" fromLane="0" toLane="0" via=":gneJ18_2_0" dir="s" state="M"/>
    <connection from="-gneE10" to="gneE14" fromLane="1" toLane="1" via=":gneJ18_2_1" dir="s" state="M"/>
    <connection from="-gneE11" to="gneE13" fromLane="0" toLane="0" via=":gneJ19_0_0" dir="s" state="M"/>
    <connection from="-gneE11" to="gneE13" fromLane="1" toLane="1" via=":gneJ19_0_1" dir="s" state="M"/>
    <connection from="-gneE13" to="gneE11" fromLane="0" toLane="0" via=":gneJ19_2_0" dir="s" state="M"/>
    <connection from="-gneE13" to="gneE11" fromLane="1" toLane="1" via=":gneJ19_2_1" dir="s" state="M"/>
    <connection from="-gneE14" to="gneE10" fromLane="0" toLane="0" via=":gneJ18_0_0" dir="s" state="M"/>
    <connection from="-gneE14" to="gneE10" fromLane="1" toLane="1" via=":gneJ18_0_1" dir="s" state="M"/>
    <connection from="-gneE5.0" to="-gneE10" fromLane="0" toLane="0" via=":gneJ17_4_0" dir="r" state="M"/>
    <connection from="-gneE5.0" to="-gneE5.2309" fromLane="0" toLane="0" via=":gneJ17_5_0" dir="s" state="M"/>
    <connection from="-gneE5.0" to="-gneE5.2309" fromLane="1" toLane="1" via=":gneJ17_5_1" dir="s" state="M"/>
    <connection from="-gneE5.0" to="-gneE11" fromLane="1" toLane="1" via=":gneJ17_7_0" dir="l" state="m"/>
    <connection from="-gneE5.2309" to="-gneE4" fromLane="0" toLane="0" via=":gneJ7_0_0" dir="s" state="M"/>
    <connection from="-gneE5.2309" to="-gneE4" fromLane="1" toLane="1" via=":gneJ7_0_1" dir="s" state="M"/>
    <connection from="-gneE6" to="-gneE5.0" fromLane="0" toLane="0" via=":gneJ8_0_0" dir="s" state="M"/>
    <connection from="-gneE6" to="-gneE5.0" fromLane="1" toLane="1" via=":gneJ8_0_1" dir="s" state="M"/>
    <connection from="gneE10" to="-gneE5.2309" fromLane="0" toLane="0" via=":gneJ17_0_0" dir="r" state="m"/>
    <connection from="gneE10" to="-gneE11" fromLane="0" toLane="0" via=":gneJ17_1_0" dir="s" state="m"/>
    <connection from="gneE10" to="-gneE11" fromLane="1" toLane="1" via=":gneJ17_1_1" dir="s" state="m"/>
    <connection from="gneE10" to="gneE5.2180" fromLane="1" toLane="1" via=":gneJ17_3_0" dir="l" state="m"/>
    <connection from="gneE11" to="gneE5.2180" fromLane="0" toLane="0" via=":gneJ17_8_0" dir="r" state="m"/>
    <connection from="gneE11" to="-gneE10" fromLane="0" toLane="0" via=":gneJ17_9_0" dir="s" state="m"/>
    <connection from="gneE11" to="-gneE10" fromLane="1" toLane="1" via=":gneJ17_9_1" dir="s" state="m"/>
    <connection from="gneE11" to="-gneE5.2309" fromLane="1" toLane="1" via=":gneJ17_11_0" dir="l" state="m"/>
    <connection from="gneE4" to="gneE5.0" fromLane="0" toLane="0" via=":gneJ7_2_0" dir="s" state="M"/>
    <connection from="gneE4" to="gneE5.0" fromLane="1" toLane="1" via=":gneJ7_2_1" dir="s" state="M"/>
    <connection from="gneE5.0" to="-gneE11" fromLane="0" toLane="0" via=":gneJ17_12_0" dir="r" state="M"/>
    <connection from="gneE5.0" to="gneE5.2180" fromLane="0" toLane="0" via=":gneJ17_13_0" dir="s" state="M"/>
    <connection from="gneE5.0" to="gneE5.2180" fromLane="1" toLane="1" via=":gneJ17_13_1" dir="s" state="M"/>
    <connection from="gneE5.0" to="-gneE10" fromLane="1" toLane="1" via=":gneJ17_15_0" dir="l" state="m"/>
    <connection from="gneE5.2180" to="gneE6" fromLane="0" toLane="0" via=":gneJ8_2_0" dir="s" state="M"/>
    <connection from="gneE5.2180" to="gneE6" fromLane="1" toLane="1" via=":gneJ8_2_1" dir="s" state="M"/>

    <connection from=":gneJ17_0" to="-gneE5.2309" fromLane="0" toLane="0" dir="r" state="M"/>
    <connection from=":gneJ17_1" to="-gneE11" fromLane="0" toLane="0" dir="s" state="M"/>
    <connection from=":gneJ17_1" to="-gneE11" fromLane="1" toLane="1" dir="s" state="M"/>
    <connection from=":gneJ17_3" to="gneE5.2180" fromLane="0" toLane="1" dir="l" state="M"/>
    <connection from=":gneJ17_4" to="-gneE10" fromLane="0" toLane="0" dir="r" state="M"/>
    <connection from=":gneJ17_5" to="-gneE5.2309" fromLane="0" toLane="0" dir="s" state="M"/>
    <connection from=":gneJ17_5" to="-gneE5.2309" fromLane="1" toLane="1" dir="s" state="M"/>
    <connection from=":gneJ17_7" to="-gneE11" fromLane="0" toLane="1" via=":gneJ17_16_0" dir="l" state="m"/>
    <connection from=":gneJ17_16" to="-gneE11" fromLane="0" toLane="1" dir="l" state="M"/>
    <connection from=":gneJ17_8" to="gneE5.2180" fromLane="0" toLane="0" dir="r" state="M"/>
    <connection from=":gneJ17_9" to="-gneE10" fromLane="0" toLane="0" dir="s" state="M"/>
    <connection from=":gneJ17_9" to="-gneE10" fromLane="1" toLane="1" dir="s" state="M"/>
    <connection from=":gneJ17_11" to="-gneE5.2309" fromLane="0" toLane="1" dir="l" state="M"/>
    <connection from=":gneJ17_12" to="-gneE11" fromLane="0" toLane="0" dir="r" state="M"/>
    <connection from=":gneJ17_13" to="gneE5.2180" fromLane="0" toLane="0" dir="s" state="M"/>
    <connection from=":gneJ17_13" to="gneE5.2180" fromLane="1" toLane="1" dir="s" state="M"/>
    <connection from=":gneJ17_15" to="-gneE10" fromLane="0" toLane="1" via=":gneJ17_17_0" dir="l" state="m"/>
    <connection from=":gneJ17_17" to="-gneE10" fromLane="0" toLane="1" dir="l" state="M"/>
    <connection from=":gneJ18_0" to="gneE10" fromLane="0" toLane="0" dir="s" state="M"/>
    <connection from=":gneJ18_0" to="gneE10" fromLane="1" toLane="1" dir="s" state="M"/>
    <connection from=":gneJ18_2" to="gneE14" fromLane="0" toLane="0" dir="s" state="M"/>
    <connection from=":gneJ18_2" to="gneE14" fromLane="1" toLane="1" dir="s" state="M"/>
    <connection from=":gneJ19_0" to="gneE13" fromLane="0" toLane="0" dir="s" state="M"/>
    <connection from=":gneJ19_0" to="gneE13" fromLane="1" toLane="1" dir="s" state="M"/>
    <connection from=":gneJ19_2" to="gneE11" fromLane="0" toLane="0" dir="s" state="M"/>
    <connection from=":gneJ19_2" to="gneE11" fromLane="1" toLane="1" dir="s" state="M"/>
    <connection from=":gneJ7_0" to="-gneE4" fromLane="0" toLane="0" dir="s" state="M"/>
    <connection from=":gneJ7_0" to="-gneE4" fromLane="1" toLane="1" dir="s" state="M"/>
    <connection from=":gneJ7_2" to="gneE5.0" fromLane="0" toLane="0" dir="s" state="M"/>
    <connection from=":gneJ7_2" to="gneE5.0" fromLane="1" toLane="1" dir="s" state="M"/>
    <connection from=":gneJ8_0" to="-gneE5.0" fromLane="0" toLane="0" dir="s" state="M"/>
    <connection from=":gneJ8_0" to="-gneE5.0" fromLane="1" toLane="1" dir="s" state="M"/>
    <connection from=":gneJ8_2" to="gneE6" fromLane="0" toLane="0" dir="s" state="M"/>
    <connection from=":gneJ8_2" to="gneE6" fromLane="1" toLane="1" dir="s" state="M"/>

</net>
