<?xml version="1.0" encoding="UTF-8"?>

<!-- generated on Tue 10 Oct 2023 01:11:52 AM UTC by Eclipse SUMO netedit Version 1.8.0
<configuration xmlns:xsi="http://www.w3.org/2001/XMLSchema-instance" xsi:noNamespaceSchemaLocation="http://sumo.dlr.de/xsd/netconvertConfiguration.xsd">

    <input>
        <sumo-net-file value="/home/veins/Downloads/downtown.net.xml"/>
    </input>

    <output>
        <output-file value="/home/veins/Downloads/downtown.net.xml"/>
    </output>

    <processing>
        <geometry.min-radius.fix.railways value="false"/>
        <geometry.max-grade.fix value="false"/>
        <offset.disable-normalization value="true"/>
        <lefthand value="false"/>
    </processing>

    <junctions>
        <no-turnarounds value="true"/>
        <junctions.corner-detail value="5"/>
        <junctions.limit-turn-speed value="5.5"/>
        <rectangular-lane-cut value="false"/>
    </junctions>

    <pedestrian>
        <walkingareas value="false"/>
    </pedestrian>

    <report>
        <aggregate-warnings value="5"/>
    </report>

</configuration>
-->

<net version="1.6" junctionCornerDetail="5" limitTurnSpeed="5.50" xmlns:xsi="http://www.w3.org/2001/XMLSchema-instance" xsi:noNamespaceSchemaLocation="http://sumo.dlr.de/xsd/net_file.xsd">

    <location netOffset="-299374.88,1644648.21" convBoundary="0.00,0.00,2506.20,2957.72" origBoundary="-40.864558,-14.868833,-40.841299,-14.842153" projParameter="+proj=utm +zone=24 +ellps=WGS84 +datum=WGS84 +units=m +no_defs"/>

    <type id="highway.bridleway" priority="1" numLanes="1" speed="2.78" allow="pedestrian" oneway="1" width="2.00"/>
    <type id="highway.bus_guideway" priority="1" numLanes="1" speed="27.78" allow="bus" oneway="1"/>
    <type id="highway.cycleway" priority="1" numLanes="1" speed="8.33" allow="bicycle" oneway="1" width="1.00"/>
    <type id="highway.footway" priority="1" numLanes="1" speed="2.78" allow="pedestrian" oneway="1" width="2.00"/>
    <type id="highway.ford" priority="1" numLanes="1" speed="2.78" allow="army" oneway="1"/>
    <type id="highway.living_street" priority="2" numLanes="1" speed="2.78" disallow="tram rail_urban rail rail_electric rail_fast ship" oneway="1"/>
    <type id="highway.motorway" priority="14" numLanes="2" speed="39.44" allow="private emergency authority army vip passenger hov taxi bus coach delivery truck trailer motorcycle evehicle custom1 custom2" oneway="1"/>
    <type id="highway.motorway_link" priority="9" numLanes="1" speed="22.22" allow="private emergency authority army vip passenger hov taxi bus coach delivery truck trailer motorcycle evehicle custom1 custom2" oneway="1"/>
    <type id="highway.path" priority="1" numLanes="1" speed="2.78" allow="pedestrian bicycle" oneway="1" width="2.00"/>
    <type id="highway.pedestrian" priority="1" numLanes="1" speed="2.78" allow="pedestrian" oneway="1" width="2.00"/>
    <type id="highway.primary" priority="12" numLanes="2" speed="27.78" disallow="tram rail_urban rail rail_electric rail_fast ship" oneway="1"/>
    <type id="highway.primary_link" priority="7" numLanes="1" speed="22.22" disallow="tram rail_urban rail rail_electric rail_fast ship" oneway="1"/>
    <type id="highway.raceway" priority="15" numLanes="2" speed="83.33" allow="vip" oneway="1"/>
    <type id="highway.residential" priority="3" numLanes="1" speed="13.89" disallow="tram rail_urban rail rail_electric rail_fast ship" oneway="1"/>
    <type id="highway.secondary" priority="11" numLanes="1" speed="27.78" disallow="tram rail_urban rail rail_electric rail_fast ship" oneway="1"/>
    <type id="highway.secondary_link" priority="6" numLanes="1" speed="22.22" disallow="tram rail_urban rail rail_electric rail_fast ship" oneway="1"/>
    <type id="highway.service" priority="1" numLanes="1" speed="5.56" allow="pedestrian delivery bicycle" oneway="1"/>
    <type id="highway.stairs" priority="1" numLanes="1" speed="1.39" allow="pedestrian" oneway="1" width="2.00"/>
    <type id="highway.step" priority="1" numLanes="1" speed="1.39" allow="pedestrian" oneway="1" width="2.00"/>
    <type id="highway.steps" priority="1" numLanes="1" speed="1.39" allow="pedestrian" oneway="1" width="2.00"/>
    <type id="highway.tertiary" priority="10" numLanes="1" speed="22.22" disallow="tram rail_urban rail rail_electric rail_fast ship" oneway="1"/>
    <type id="highway.tertiary_link" priority="5" numLanes="1" speed="22.22" disallow="tram rail_urban rail rail_electric rail_fast ship" oneway="1"/>
    <type id="highway.track" priority="1" numLanes="1" speed="5.56" allow="pedestrian motorcycle moped bicycle" oneway="1"/>
    <type id="highway.trunk" priority="13" numLanes="2" speed="27.78" disallow="pedestrian bicycle tram rail_urban rail rail_electric rail_fast ship" oneway="1"/>
    <type id="highway.trunk_link" priority="8" numLanes="1" speed="22.22" disallow="pedestrian bicycle tram rail_urban rail rail_electric rail_fast ship" oneway="1"/>
    <type id="highway.unclassified" priority="4" numLanes="1" speed="13.89" disallow="tram rail_urban rail rail_electric rail_fast ship" oneway="1"/>
    <type id="highway.unsurfaced" priority="1" numLanes="1" speed="8.33" disallow="tram rail_urban rail rail_electric rail_fast ship" oneway="1"/>
    <type id="railway.highspeed" priority="21" numLanes="1" speed="69.44" allow="rail_fast" oneway="1"/>
    <type id="railway.light_rail" priority="19" numLanes="1" speed="27.78" allow="rail_urban" oneway="1"/>
    <type id="railway.preserved" priority="16" numLanes="1" speed="27.78" allow="rail" oneway="1"/>
    <type id="railway.rail" priority="20" numLanes="1" speed="44.44" allow="rail" oneway="1"/>
    <type id="railway.subway" priority="18" numLanes="1" speed="27.78" allow="rail_urban" oneway="1"/>
    <type id="railway.tram" priority="17" numLanes="1" speed="13.89" allow="tram" oneway="1"/>

    <edge id=":1208279780_0" function="internal">
        <lane id=":1208279780_0_0" index="0" disallow="pedestrian bicycle tram rail_urban rail rail_electric rail_fast ship" speed="6.73" length="9.31" shape="1675.88,1663.11 1675.23,1660.73 1673.93,1659.09 1671.98,1658.18 1669.38,1658.00"/>
    </edge>
    <edge id=":1208279780_1" function="internal">
        <lane id=":1208279780_1_0" index="0" disallow="pedestrian bicycle tram rail_urban rail rail_electric rail_fast ship" speed="27.78" length="14.39" shape="1675.88,1663.11 1674.21,1648.80"/>
        <lane id=":1208279780_1_1" index="1" disallow="pedestrian bicycle tram rail_urban rail rail_electric rail_fast ship" speed="27.78" length="14.39" shape="1679.06,1662.72 1677.39,1648.44"/>
    </edge>
    <edge id=":1208279780_3" function="internal">
        <lane id=":1208279780_3_0" index="0" disallow="pedestrian bicycle tram rail_urban rail rail_electric rail_fast ship" speed="6.40" length="9.04" shape="1669.18,1654.81 1671.62,1654.30 1673.27,1653.13 1674.13,1651.30 1674.21,1648.80"/>
    </edge>
    <edge id=":1208279780_4" function="internal">
        <lane id=":1208279780_4_0" index="0" disallow="tram rail_urban rail rail_electric rail_fast ship" speed="3.65" length="4.67" shape="1669.18,1654.81 1670.43,1655.53 1670.88,1656.31 1670.53,1657.13 1669.38,1658.00"/>
    </edge>
    <edge id=":1208279782_0" function="internal">
        <lane id=":1208279782_0_0" index="0" disallow="pedestrian bicycle tram rail_urban rail rail_electric rail_fast ship" speed="8.63" length="10.19" shape="1723.83,1829.70 1721.41,1832.25 1719.80,1834.53 1719.00,1836.53 1719.00,1838.26"/>
    </edge>
    <edge id=":1208279782_1" function="internal">
        <lane id=":1208279782_1_0" index="0" disallow="pedestrian bicycle tram rail_urban rail rail_electric rail_fast ship" speed="9.88" length="13.56" shape="1721.63,1827.38 1718.64,1830.61 1716.69,1833.63 1715.78,1836.45 1715.90,1839.05"/>
    </edge>
    <edge id=":1208279782_2" function="internal">
        <lane id=":1208279782_2_0" index="0" disallow="pedestrian bicycle tram rail_urban rail rail_electric rail_fast ship" speed="27.78" length="12.95" shape="1716.95,1825.70 1717.37,1829.46 1717.67,1832.04 1718.12,1834.58 1719.00,1838.26"/>
        <lane id=":1208279782_2_1" index="1" disallow="pedestrian bicycle tram rail_urban rail rail_electric rail_fast ship" speed="27.78" length="12.95" shape="1713.78,1826.08 1714.21,1829.96 1714.52,1832.63 1714.99,1835.26 1715.90,1839.05"/>
    </edge>
    <edge id=":1504321926_0" function="internal">
        <lane id=":1504321926_0_0" index="0" disallow="pedestrian bicycle tram rail_urban rail rail_electric rail_fast ship" speed="27.78" length="7.19" shape="1715.75,2047.61 1715.19,2045.58 1714.38,2044.30 1713.59,2043.01 1713.09,2040.97"/>
        <lane id=":1504321926_0_1" index="1" disallow="pedestrian bicycle tram rail_urban rail rail_electric rail_fast ship" speed="27.78" length="7.19" shape="1718.92,2047.20 1718.37,2045.19 1717.56,2043.93 1716.77,2042.67 1716.28,2040.66"/>
    </edge>
    <edge id=":1504321926_2" function="internal">
        <lane id=":1504321926_2_0" index="0" disallow="pedestrian bicycle tram rail_urban rail rail_electric rail_fast ship" speed="8.52" length="6.56" shape="1722.97,2045.69 1721.54,2044.38 1720.48,2043.04 1719.78,2041.70 1719.46,2040.34"/>
    </edge>
    <edge id=":2057209415_0" function="internal">
        <lane id=":2057209415_0_0" index="0" disallow="tram rail_urban rail rail_electric rail_fast ship" speed="3.65" length="4.67" shape="1614.92,2957.54 1614.26,2958.82 1613.51,2959.31 1612.67,2959.00 1611.74,2957.90"/>
    </edge>
    <edge id=":2057209417_0" function="internal">
        <lane id=":2057209417_0_0" index="0" disallow="tram rail_urban rail rail_electric rail_fast ship" speed="6.52" length="9.04" shape="1180.69,1713.23 1180.07,1710.84 1178.83,1709.22 1176.97,1708.37 1174.49,1708.29"/>
    </edge>
    <edge id=":2057209417_1" function="internal">
        <lane id=":2057209417_1_0" index="0" disallow="tram rail_urban rail rail_electric rail_fast ship" speed="27.78" length="14.46" shape="1180.69,1713.23 1179.10,1698.86"/>
        <lane id=":2057209417_1_1" index="1" disallow="tram rail_urban rail rail_electric rail_fast ship" speed="27.78" length="14.46" shape="1183.87,1712.87 1182.28,1698.51"/>
    </edge>
    <edge id=":2057209417_3" function="internal">
        <lane id=":2057209417_3_0" index="0" disallow="tram rail_urban rail rail_electric rail_fast ship" speed="8.06" length="5.94" shape="1183.87,1712.87 1183.99,1709.00 1184.84,1707.12"/>
    </edge>
    <edge id=":2057209417_4" function="internal">
        <lane id=":2057209417_4_0" index="0" disallow="tram rail_urban rail rail_electric rail_fast ship" speed="3.65" length="2.34" shape="1183.87,1712.87 1184.53,1711.59 1185.28,1711.10"/>
    </edge>
    <edge id=":2057209417_17" function="internal">
        <lane id=":2057209417_17_0" index="0" disallow="tram rail_urban rail rail_electric rail_fast ship" speed="8.06" length="8.30" shape="1184.84,1707.12 1185.32,1706.07 1187.88,1704.08 1191.65,1703.05"/>
    </edge>
    <edge id=":2057209417_18" function="internal">
        <lane id=":2057209417_18_0" index="0" disallow="tram rail_urban rail rail_electric rail_fast ship" speed="3.65" length="2.34" shape="1185.28,1711.10 1186.12,1711.41 1187.05,1712.51"/>
    </edge>
    <edge id=":2057209417_5" function="internal">
        <lane id=":2057209417_5_0" index="0" disallow="tram rail_urban rail rail_electric rail_fast ship" speed="6.57" length="9.14" shape="1192.06,1706.22 1189.63,1706.89 1187.99,1708.16 1187.13,1710.03 1187.05,1712.51"/>
    </edge>
    <edge id=":2057209417_6" function="internal">
        <lane id=":2057209417_6_0" index="0" disallow="tram rail_urban rail rail_electric rail_fast ship" speed="22.22" length="17.68" shape="1192.06,1706.22 1174.49,1708.29"/>
    </edge>
    <edge id=":2057209417_7" function="internal">
        <lane id=":2057209417_7_0" index="0" disallow="tram rail_urban rail rail_electric rail_fast ship" speed="7.97" length="14.27" shape="1192.06,1706.22 1188.14,1706.17 1185.20,1704.86 1183.25,1702.31 1182.28,1698.51"/>
    </edge>
    <edge id=":2057209417_8" function="internal">
        <lane id=":2057209417_8_0" index="0" disallow="tram rail_urban rail rail_electric rail_fast ship" speed="3.65" length="4.67" shape="1192.06,1706.22 1190.77,1705.58 1190.27,1704.84 1190.56,1704.00 1191.65,1703.05"/>
    </edge>
    <edge id=":2057209417_9" function="internal">
        <lane id=":2057209417_9_0" index="0" disallow="tram rail_urban rail rail_electric rail_fast ship" speed="6.46" length="9.03" shape="1185.46,1698.17 1186.07,1700.57 1187.31,1702.19 1189.17,1703.01 1191.65,1703.05"/>
    </edge>
    <edge id=":2057209417_10" function="internal">
        <lane id=":2057209417_10_0" index="0" disallow="tram rail_urban rail rail_electric rail_fast ship" speed="27.78" length="14.43" shape="1185.46,1698.17 1187.05,1712.51"/>
    </edge>
    <edge id=":2057209417_11" function="internal">
        <lane id=":2057209417_11_0" index="0" disallow="tram rail_urban rail rail_electric rail_fast ship" speed="8.69" length="5.28" shape="1185.46,1698.17 1185.13,1702.10 1184.41,1703.22"/>
    </edge>
    <edge id=":2057209417_12" function="internal">
        <lane id=":2057209417_12_0" index="0" disallow="tram rail_urban rail rail_electric rail_fast ship" speed="3.65" length="2.34" shape="1185.46,1698.17 1184.79,1699.45 1184.04,1699.93"/>
    </edge>
    <edge id=":2057209417_19" function="internal">
        <lane id=":2057209417_19_0" index="0" disallow="tram rail_urban rail rail_electric rail_fast ship" speed="8.69" length="11.62" shape="1184.41,1703.22 1183.19,1705.10 1179.65,1707.16 1174.49,1708.29"/>
    </edge>
    <edge id=":2057209417_20" function="internal">
        <lane id=":2057209417_20_0" index="0" disallow="tram rail_urban rail rail_electric rail_fast ship" speed="3.65" length="2.34" shape="1184.04,1699.93 1183.20,1699.62 1182.28,1698.51"/>
    </edge>
    <edge id=":2057209417_13" function="internal">
        <lane id=":2057209417_13_0" index="0" disallow="tram rail_urban rail rail_electric rail_fast ship" speed="6.53" length="9.09" shape="1174.14,1705.11 1176.54,1704.49 1178.16,1703.24 1179.02,1701.36 1179.10,1698.86"/>
    </edge>
    <edge id=":2057209417_14" function="internal">
        <lane id=":2057209417_14_0" index="0" disallow="tram rail_urban rail rail_electric rail_fast ship" speed="22.22" length="17.63" shape="1174.14,1705.11 1191.65,1703.05"/>
    </edge>
    <edge id=":2057209417_15" function="internal">
        <lane id=":2057209417_15_0" index="0" disallow="tram rail_urban rail rail_electric rail_fast ship" speed="8.68" length="16.84" shape="1174.14,1705.11 1179.42,1705.08 1183.33,1706.30 1185.87,1708.78 1187.05,1712.51"/>
    </edge>
    <edge id=":2057209417_16" function="internal">
        <lane id=":2057209417_16_0" index="0" disallow="tram rail_urban rail rail_electric rail_fast ship" speed="3.65" length="4.67" shape="1174.14,1705.11 1175.42,1705.77 1175.91,1706.52 1175.60,1707.36 1174.49,1708.29"/>
    </edge>
    <edge id=":2057735343_0" function="internal">
        <lane id=":2057735343_0_0" index="0" disallow="tram rail_urban rail rail_electric rail_fast ship" speed="8.83" length="3.84" shape="2240.31,1858.58 2239.85,1857.55 2239.43,1856.88 2238.87,1856.32 2237.96,1855.65"/>
    </edge>
    <edge id=":2057735343_1" function="internal">
        <lane id=":2057735343_1_0" index="0" disallow="tram rail_urban rail rail_electric rail_fast ship" speed="27.78" length="4.12" shape="2243.25,1857.33 2241.57,1853.66"/>
        <lane id=":2057735343_1_1" index="1" disallow="tram rail_urban rail rail_electric rail_fast ship" speed="27.78" length="4.12" shape="2246.20,1856.09 2244.45,1852.26"/>
    </edge>
    <edge id=":2057735344_0" function="internal">
        <lane id=":2057735344_0_0" index="0" disallow="tram rail_urban rail rail_electric rail_fast ship" speed="27.78" length="11.18" shape="2235.27,1838.25 2232.42,1827.36"/>
        <lane id=":2057735344_0_1" index="1" disallow="tram rail_urban rail rail_electric rail_fast ship" speed="27.78" length="11.18" shape="2238.35,1837.36 2235.53,1826.63"/>
    </edge>
    <edge id=":2057735344_2" function="internal">
        <lane id=":2057735344_2_0" index="0" disallow="tram rail_urban rail rail_electric rail_fast ship" speed="5.99" length="7.84" shape="2238.35,1837.36 2237.89,1834.88 2238.13,1832.99 2239.08,1831.67 2240.72,1830.93"/>
    </edge>
    <edge id=":2057735345_0" function="internal">
        <lane id=":2057735345_0_0" index="0" disallow="tram rail_urban rail rail_electric rail_fast ship" speed="7.11" length="9.28" shape="2245.43,1824.07 2246.74,1826.39 2248.38,1827.90 2250.35,1828.61 2252.64,1828.52"/>
    </edge>
    <edge id=":2057735345_1" function="internal">
        <lane id=":2057735345_1_0" index="0" disallow="tram rail_urban rail rail_electric rail_fast ship" speed="27.78" length="10.77" shape="2245.43,1824.07 2246.69,1827.06 2247.50,1829.13 2248.22,1831.23 2249.20,1834.32"/>
        <lane id=":2057735345_1_1" index="1" disallow="tram rail_urban rail rail_electric rail_fast ship" speed="27.78" length="10.77" shape="2242.48,1825.32 2243.70,1828.22 2244.49,1830.23 2245.19,1832.27 2246.14,1835.27"/>
    </edge>
    <edge id=":2057735345_3" function="internal">
        <lane id=":2057735345_3_0" index="0" disallow="tram rail_urban rail rail_electric rail_fast ship" speed="22.22" length="11.97" shape="2240.91,1830.89 2252.64,1828.52"/>
    </edge>
    <edge id=":2057735345_4" function="internal">
        <lane id=":2057735345_4_0" index="0" disallow="tram rail_urban rail rail_electric rail_fast ship" speed="6.19" length="7.58" shape="2240.91,1830.89 2242.59,1830.86 2244.03,1831.58 2245.21,1833.05 2246.14,1835.27"/>
    </edge>
    <edge id=":2057735355_0" function="internal">
        <lane id=":2057735355_0_0" index="0" disallow="tram rail_urban rail rail_electric rail_fast ship" speed="6.69" length="9.27" shape="2222.53,1745.28 2220.30,1746.59 2218.98,1748.27 2218.56,1750.31 2219.06,1752.73"/>
    </edge>
    <edge id=":2057735355_1" function="internal">
        <lane id=":2057735355_1_0" index="0" disallow="tram rail_urban rail rail_electric rail_fast ship" speed="3.65" length="4.67" shape="2222.53,1745.28 2221.11,1745.01 2220.44,1744.43 2220.50,1743.53 2221.29,1742.33"/>
    </edge>
    <edge id=":2057735355_2" function="internal">
        <lane id=":2057735355_2_0" index="0" disallow="tram rail_urban rail rail_electric rail_fast ship" speed="6.41" length="9.04" shape="2214.11,1739.19 2215.29,1741.39 2216.88,1742.64 2218.88,1742.96 2221.29,1742.33"/>
    </edge>
    <edge id=":2057735355_3" function="internal">
        <lane id=":2057735355_3_0" index="0" disallow="tram rail_urban rail rail_electric rail_fast ship" speed="27.78" length="14.41" shape="2214.11,1739.19 2219.06,1752.73"/>
        <lane id=":2057735355_3_1" index="1" disallow="tram rail_urban rail rail_electric rail_fast ship" speed="27.78" length="14.41" shape="2211.10,1740.29 2216.05,1753.83"/>
    </edge>
    <edge id=":2057735356_0" function="internal">
        <lane id=":2057735356_0_0" index="0" disallow="tram rail_urban rail rail_electric rail_fast ship" speed="22.22" length="17.60" shape="2056.46,1734.17 2041.53,1724.84"/>
    </edge>
    <edge id=":2057735356_1" function="internal">
        <lane id=":2057735356_1_0" index="0" disallow="tram rail_urban rail rail_electric rail_fast ship" speed="6.54" length="14.98" shape="2049.23,1720.34 2050.01,1724.82 2048.99,1727.06 2046.16,1727.07 2041.53,1724.84"/>
    </edge>
    <edge id=":2057735359_0" function="internal">
        <lane id=":2057735359_0_0" index="0" disallow="tram rail_urban rail rail_electric rail_fast ship" speed="6.54" length="8.92" shape="2324.52,1691.45 2326.13,1689.73 2326.80,1687.85 2326.53,1685.81 2325.32,1683.61"/>
    </edge>
    <edge id=":2057735359_1" function="internal">
        <lane id=":2057735359_1_0" index="0" disallow="tram rail_urban rail rail_electric rail_fast ship" speed="13.89" length="12.85" shape="2324.52,1691.45 2327.45,1689.90 2330.42,1689.32 2333.48,1688.89 2336.71,1687.79"/>
    </edge>
    <edge id=":2057735359_2" function="internal">
        <lane id=":2057735359_2_0" index="0" disallow="tram rail_urban rail rail_electric rail_fast ship" speed="3.65" length="4.67" shape="2324.52,1691.45 2325.95,1691.34 2326.76,1691.72 2326.95,1692.60 2326.50,1693.97"/>
    </edge>
    <edge id=":2057735371_0" function="internal">
        <lane id=":2057735371_0_0" index="0" disallow="tram rail_urban rail rail_electric rail_fast ship" speed="7.89" length="9.16" shape="2003.58,1566.43 2002.56,1567.88 2002.11,1569.81 2002.25,1572.23 2002.95,1575.13"/>
    </edge>
    <edge id=":2057735371_1" function="internal">
        <lane id=":2057735371_1_0" index="0" disallow="tram rail_urban rail rail_electric rail_fast ship" speed="8.57" length="10.93" shape="2003.58,1566.43 2001.39,1568.84 2000.05,1571.25 1999.56,1573.67 1999.90,1576.09"/>
    </edge>
    <edge id=":2057735371_2" function="internal">
        <lane id=":2057735371_2_0" index="0" disallow="tram rail_urban rail rail_electric rail_fast ship" speed="22.22" length="12.18" shape="2003.58,1566.43 1994.66,1574.72"/>
        <lane id=":2057735371_2_1" index="1" disallow="tram rail_urban rail rail_electric rail_fast ship" speed="22.22" length="12.18" shape="2001.41,1564.08 1992.48,1572.38"/>
    </edge>
    <edge id=":2077976045_0" function="internal">
        <lane id=":2077976045_0_0" index="0" disallow="tram rail_urban rail rail_electric rail_fast ship" speed="13.89" length="14.52" shape="1123.35,2061.90 1121.77,2047.46"/>
    </edge>
    <edge id=":2077976045_1" function="internal">
        <lane id=":2077976045_1_0" index="0" disallow="tram rail_urban rail rail_electric rail_fast ship" speed="6.60" length="9.21" shape="1126.53,2061.55 1126.61,2059.03 1127.48,2057.13 1129.12,2055.84 1131.55,2055.18"/>
    </edge>
    <edge id=":2077976045_2" function="internal">
        <lane id=":2077976045_2_0" index="0" disallow="tram rail_urban rail rail_electric rail_fast ship" speed="6.47" length="9.03" shape="1124.95,2047.12 1125.57,2049.52 1126.81,2051.13 1128.67,2051.96 1131.15,2052.01"/>
    </edge>
    <edge id=":2077976045_3" function="internal">
        <lane id=":2077976045_3_0" index="0" disallow="tram rail_urban rail rail_electric rail_fast ship" speed="3.65" length="2.34" shape="1124.95,2047.12 1124.29,2048.40 1123.54,2048.88"/>
    </edge>
    <edge id=":2077976045_7" function="internal">
        <lane id=":2077976045_7_0" index="0" disallow="tram rail_urban rail rail_electric rail_fast ship" speed="3.65" length="2.34" shape="1123.54,2048.88 1122.70,2048.57 1121.77,2047.46"/>
    </edge>
    <edge id=":2077976045_4" function="internal">
        <lane id=":2077976045_4_0" index="0" disallow="tram rail_urban rail rail_electric rail_fast ship" speed="6.62" length="9.23" shape="1116.74,2053.85 1119.17,2053.18 1120.82,2051.89 1121.69,2049.98 1121.77,2047.46"/>
    </edge>
    <edge id=":2077976045_5" function="internal">
        <lane id=":2077976045_5_0" index="0" disallow="tram rail_urban rail rail_electric rail_fast ship" speed="27.78" length="14.52" shape="1116.74,2053.85 1131.15,2052.01"/>
        <lane id=":2077976045_5_1" index="1" disallow="tram rail_urban rail rail_electric rail_fast ship" speed="27.78" length="14.52" shape="1117.15,2057.02 1131.55,2055.18"/>
    </edge>
    <edge id=":2077976049_0" function="internal">
        <lane id=":2077976049_0_0" index="0" disallow="tram rail_urban rail rail_electric rail_fast ship" speed="6.57" length="9.16" shape="1103.09,1885.50 1102.44,1883.07 1101.17,1881.42 1099.29,1880.56 1096.79,1880.48"/>
    </edge>
    <edge id=":2077976049_1" function="internal">
        <lane id=":2077976049_1_0" index="0" disallow="tram rail_urban rail rail_electric rail_fast ship" speed="13.89" length="14.50" shape="1103.09,1885.50 1101.35,1871.10"/>
    </edge>
    <edge id=":2077976049_2" function="internal">
        <lane id=":2077976049_2_0" index="0" disallow="tram rail_urban rail rail_electric rail_fast ship" speed="7.96" length="5.94" shape="1103.09,1885.50 1103.17,1881.58 1104.00,1879.74"/>
    </edge>
    <edge id=":2077976049_3" function="internal">
        <lane id=":2077976049_3_0" index="0" disallow="tram rail_urban rail rail_electric rail_fast ship" speed="3.65" length="2.34" shape="1103.09,1885.50 1103.74,1884.21 1104.48,1883.72"/>
    </edge>
    <edge id=":2077976049_16" function="internal">
        <lane id=":2077976049_16_0" index="0" disallow="tram rail_urban rail rail_electric rail_fast ship" speed="7.96" length="8.33" shape="1104.00,1879.74 1104.50,1878.65 1107.06,1876.71 1110.87,1875.77"/>
    </edge>
    <edge id=":2077976049_17" function="internal">
        <lane id=":2077976049_17_0" index="0" disallow="tram rail_urban rail rail_electric rail_fast ship" speed="3.65" length="2.34" shape="1104.48,1883.72 1105.33,1884.02 1106.27,1885.11"/>
    </edge>
    <edge id=":2077976049_4" function="internal">
        <lane id=":2077976049_4_0" index="0" disallow="tram rail_urban rail rail_electric rail_fast ship" speed="6.46" length="9.03" shape="1111.19,1878.95 1108.78,1879.55 1107.16,1880.78 1106.32,1882.63 1106.27,1885.11"/>
    </edge>
    <edge id=":2077976049_5" function="internal">
        <lane id=":2077976049_5_0" index="0" disallow="tram rail_urban rail rail_electric rail_fast ship" speed="13.89" length="14.48" shape="1111.19,1878.95 1096.79,1880.48"/>
    </edge>
    <edge id=":2077976049_6" function="internal">
        <lane id=":2077976049_6_0" index="0" disallow="tram rail_urban rail rail_electric rail_fast ship" speed="8.08" length="14.29" shape="1111.19,1878.95 1107.28,1878.80 1104.33,1877.43 1102.36,1874.87 1101.35,1871.10"/>
    </edge>
    <edge id=":2077976049_7" function="internal">
        <lane id=":2077976049_7_0" index="0" disallow="tram rail_urban rail rail_electric rail_fast ship" speed="3.65" length="4.67" shape="1111.19,1878.95 1109.92,1878.28 1109.44,1877.52 1109.76,1876.69 1110.87,1875.77"/>
    </edge>
    <edge id=":2077976049_8" function="internal">
        <lane id=":2077976049_8_0" index="0" disallow="tram rail_urban rail rail_electric rail_fast ship" speed="6.61" length="9.20" shape="1104.53,1870.72 1105.18,1873.14 1106.45,1874.79 1108.35,1875.67 1110.87,1875.77"/>
    </edge>
    <edge id=":2077976049_9" function="internal">
        <lane id=":2077976049_9_0" index="0" disallow="tram rail_urban rail rail_electric rail_fast ship" speed="13.89" length="14.49" shape="1104.53,1870.72 1106.27,1885.11"/>
    </edge>
    <edge id=":2077976049_10" function="internal">
        <lane id=":2077976049_10_0" index="0" disallow="tram rail_urban rail rail_electric rail_fast ship" speed="7.99" length="5.92" shape="1104.53,1870.72 1104.44,1874.62 1103.61,1876.47"/>
    </edge>
    <edge id=":2077976049_11" function="internal">
        <lane id=":2077976049_11_0" index="0" disallow="tram rail_urban rail rail_electric rail_fast ship" speed="3.65" length="2.34" shape="1104.53,1870.72 1103.88,1872.01 1103.13,1872.50"/>
    </edge>
    <edge id=":2077976049_18" function="internal">
        <lane id=":2077976049_18_0" index="0" disallow="tram rail_urban rail rail_electric rail_fast ship" speed="7.99" length="8.30" shape="1103.61,1876.47 1103.12,1877.55 1100.57,1879.50 1096.79,1880.48"/>
    </edge>
    <edge id=":2077976049_19" function="internal">
        <lane id=":2077976049_19_0" index="0" disallow="tram rail_urban rail rail_electric rail_fast ship" speed="3.65" length="2.34" shape="1103.13,1872.50 1102.29,1872.20 1101.35,1871.10"/>
    </edge>
    <edge id=":2077976049_12" function="internal">
        <lane id=":2077976049_12_0" index="0" disallow="tram rail_urban rail rail_electric rail_fast ship" speed="6.49" length="9.03" shape="1096.44,1877.30 1098.84,1876.68 1100.46,1875.44 1101.29,1873.58 1101.35,1871.10"/>
    </edge>
    <edge id=":2077976049_13" function="internal">
        <lane id=":2077976049_13_0" index="0" disallow="tram rail_urban rail rail_electric rail_fast ship" speed="13.89" length="14.51" shape="1096.44,1877.30 1110.87,1875.77"/>
    </edge>
    <edge id=":2077976049_14" function="internal">
        <lane id=":2077976049_14_0" index="0" disallow="tram rail_urban rail rail_electric rail_fast ship" speed="8.06" length="14.28" shape="1096.44,1877.30 1100.34,1877.42 1103.27,1878.76 1105.25,1881.33 1106.27,1885.11"/>
    </edge>
    <edge id=":2077976049_15" function="internal">
        <lane id=":2077976049_15_0" index="0" disallow="tram rail_urban rail rail_electric rail_fast ship" speed="3.65" length="4.67" shape="1096.44,1877.30 1097.72,1877.96 1098.21,1878.71 1097.90,1879.55 1096.79,1880.48"/>
    </edge>
    <edge id=":2077976051_0" function="internal">
        <lane id=":2077976051_0_0" index="0" disallow="tram rail_urban rail rail_electric rail_fast ship" speed="6.60" length="9.19" shape="1092.68,1798.87 1092.03,1796.45 1090.76,1794.80 1088.87,1793.92 1086.36,1793.82"/>
    </edge>
    <edge id=":2077976051_1" function="internal">
        <lane id=":2077976051_1_0" index="0" disallow="tram rail_urban rail rail_electric rail_fast ship" speed="13.89" length="14.49" shape="1092.68,1798.87 1090.99,1784.48"/>
    </edge>
    <edge id=":2077976051_2" function="internal">
        <lane id=":2077976051_2_0" index="0" disallow="tram rail_urban rail rail_electric rail_fast ship" speed="7.98" length="5.96" shape="1092.68,1798.87 1092.77,1794.97 1093.62,1793.10"/>
    </edge>
    <edge id=":2077976051_3" function="internal">
        <lane id=":2077976051_3_0" index="0" disallow="tram rail_urban rail rail_electric rail_fast ship" speed="3.65" length="2.34" shape="1092.68,1798.87 1093.33,1797.58 1094.08,1797.09"/>
    </edge>
    <edge id=":2077976051_16" function="internal">
        <lane id=":2077976051_16_0" index="0" disallow="tram rail_urban rail rail_electric rail_fast ship" speed="7.98" length="8.27" shape="1093.62,1793.10 1094.09,1792.04 1096.64,1790.09 1100.42,1789.12"/>
    </edge>