<?xml version="1.0" encoding="UTF-8"?>

<!-- generated on Tue Oct 10 00:57:27 2023 by Eclipse SUMO duarouter Version 1.8.0
<configuration xmlns:xsi="http://www.w3.org/2001/XMLSchema-instance" xsi:noNamespaceSchemaLocation="http://sumo.dlr.de/xsd/duarouterConfiguration.xsd">

    <input>
        <net-file value="downtown.net.xml"/>
        <route-files value="downtown.trips.xml"/>
    </input>

    <output>
        <output-file value="downtown.rou.xml"/>
        <alternatives-output value="downtown.rou.alt.xml"/>
    </output>

    <report>
        <ignore-errors value="true"/>
    </report>

</configuration>
-->

<routes xmlns:xsi="http://www.w3.org/2001/XMLSchema-instance" xsi:noNamespaceSchemaLocation="http://sumo.dlr.de/xsd/routes_file.xsd">
    
    <vehicle id="1" depart="0.01">
        <route edges="-8095485#0 671109817#8 671109817#9 23921882#0 23921882#1 651362343 302666746#0 -685997309 -223333702#2 260865763#5"/>
    </vehicle>
    
    <vehicle id="2" depart="0.02">
        <route edges=" 778158671 671109817#6 671109817#7 671109817#8 671109817#9 23921882#0 23921882#1 651362343 302666746#0 -685997309 -223333702#2 260865763#5"/>
    </vehicle>
    
    <vehicle id="3" depart="0.03">
        <route edges=" -8095485#0 671109817#8 671109817#9 23921882#0 23921882#1 197678461#0 197678461#1 259085025#0 259085025#1 223333718#5 104749654#4"/>
    </vehicle>
    
    <vehicle id="4" depart="0.04">
        <route edges=" 778158671 671109817#6 671109817#7 671109817#8 671109817#9 23921882#0 23921882#1 197678461#0 197678461#1 4408744#1 4408744#2 4408744#3 4408744#4 4408744#5 4408744#6 4408744#7 684420997 298699445#1 298699445#2 298699445#3 300128902"/>
    </vehicle>
    
    <vehicle id="5" depart="0.05">
        <route edges=" -8095485#0 671109817#8 671109817#9 23921882#0 23921882#1 197678461#0 197678461#1 4408744#1 4408744#2 236721922#0"/>
    </vehicle>
    
    <vehicle id="6" depart="0.06">
        <route edges=" 778158671 671109817#6 671109817#7 671109817#8 671109817#9 23921882#0 23921882#1 197678461#0 197678461#1 4408744#1 4408744#2 4408744#3 -223333647#3 -223333647#1 -268280780"/>
    </vehicle>
    
    <vehicle id="7" depart="0.07">
        <route edges=" -8095485#0 671109817#8 671109817#9 23921882#0 23921882#1 651362343 302666746#0 302666746#1 302666746#2 302666746#3 302666743#0 685765581#0 685765581#1 685765581#2 685765579#0 685765579#1 8575236#0 8575236#1 8575236#2 685772908#1 137141225#0 137141225#1 137141225#2 137141225#3 137141225#4"/>
    </vehicle>
    
    <vehicle id="8" depart="0.08">
        <route edges=" 671109817#8 671109817#9 23921882#0 23921882#1 197678461#0 197678461#1 4408744#1 4408744#2 4408744#3 4408744#4 4408744#5 4408744#6 4408744#7 684420997 298699445#1 298699445#2 298699445#3 300128902"/>
    </vehicle>
    
    <vehicle id="9" depart="0.09">
        <route edges=" 671109817#9 23921882#0 23921882#1 651362343 302666746#0 302666746#1 302666746#2 302666746#3 302666743#0 685765581#0 685765581#1 685765581#2 685765579#0 685765579#1 8575236#0 8575236#1 8575236#2 685772908#1 137141225#0 137141225#1 137141225#2 137141225#3 252388728"/>
    </vehicle>
    
    <vehicle id="10" depart="0.10">
        <route edges=" 671109817#8 671109817#9 23921882#0 23921882#1 197678461#0 197678461#1 259085025#0 259085025#1 223333718#5"/>
    </vehicle>
    <vehicle id="11" depart="0.11">
        <route edges="671109817#9 4367113#0 299749393 299749397#0 299749397#1 299749397#2"/>
    </vehicle>
    <vehicle id="12" depart="00.12">
        <route edges="671109817#9 23921882#0 23921882#1 651362343 302666746#0 -685997309 -685997310#1 -685997310#0 -223333721#1 -223333721#0 223333721#0"/>
    </vehicle>
    
    <vehicle id="13" depart="00.13">
        <route edges="671109817#9 23921882#0 23921882#1 651362343 302666746#0 302666746#1 302666746#2 302666746#3 302666743#0 685765581#0 685765581#1 685765581#2 685765579#0 685765579#1 8575236#0 8575236#1 8575236#2 685772908#1 137141225#0 137141225#1 137141225#2 137141225#3 252388728"/>
    </vehicle>
    
    <vehicle id="14" depart="00.14">
        <route edges="671109817#8 671109817#9 23921882#0 23921882#1 651362343 302666746#0 302666746#1 302666746#2 302666746#3 302666743#0 685765581#0 685765581#1 685765581#2 685765579#0 685765579#1 -685997307 685997307"/>
    </vehicle>
    
    <vehicle id="15" depart="00.15">
        <route edges="671109817#8 671109817#9 23921882#0 23921882#1 197678461#0 197678461#1 259085025#0 -223333649#1"/>
    </vehicle>
    
    <vehicle id="16" depart="00.16">
        <route edges="671109817#8 671109817#9 23921882#0 23921882#1 651362343 302666746#0 302666746#1 302666746#2 302666746#3 302666743#0 685765581#0 685765581#1 685765581#2 685765579#0 685765579#1 8575236#0 223333688#1"/>
    </vehicle>
    
    <vehicle id="17" depart="00.17">
        <route edges="671109817#8 671109817#9 23921882#0 23921882#1 197678461#0 197678461#1 259085025#0 -259085025#0"/>
    </vehicle>
    
    <vehicle id="18" depart="00.18">
        <route edges="671109817#7 671109817#8 671109817#9 23921882#0 23921882#1 197678461#0 197678461#1 259085025#0 259085025#1"/>
    </vehicle>
    
    <vehicle id="19" depart="00.19">
        <route edges=" 671109817#7 671109817#8 671109817#9 23921882#0 23921882#1 197678461#0 197678461#1 259085025#0 259085025#1 223333718#5 223333718#6 223333718#7 223333658#1 -223333658#1"/>
    </vehicle>
    
    <vehicle id="20" depart="00.20">
        <route edges="671109817#7 671109817#8 671109817#9 4367113#0 299749393 299749397#0 223333681#0"/>
    </vehicle>
    
    <vehicle id="91" depart="91.00">
        <route edges="985000006#0 985000006#1 985000006#2 651362341#0 671109817#0 671109817#1 671109817#2 671109817#3 671109817#4 671109817#5 671109817#6 671109817#7 671109817#8 671109817#9 23921882#0 23921882#1 651362343 302666746#0 -685997309 -685997310#1 -685997310#0 -223333721#1 -223333721#0 -685997308 -223333688#3"/>
    </vehicle>
    <vehicle id="92" depart="92.00">
        <route edges="197598659#0 1142249270#3 1142249270#4 671109817#2 671109817#3 671109817#4 671109817#5 671109817#6 671109817#7 671109817#8 671109817#9 23921882#0 23921882#1 651362343 197678468 1078922930"/>
    </vehicle>
    <vehicle id="93" depart="93.00">
        <route edges="671109817#3 671109817#4 671109817#5 671109817#6 671109817#7 671109817#8 671109817#9 23921882#0 23921882#1 197678461#0 197678461#1 4408744#1 4408744#2 4408744#3 4408744#4 -4408744#4"/>
    </vehicle>
    <vehicle id="94" depart="94.00">
        <route edges="-23730370#8 -23730370#7 -23730370#6 -23730370#5 -23730370#4 -23730370#3 1142249270#1 1142249270#2 1142249270#3 1142249270#4 671109817#2 671109817#3 671109817#4 671109817#5 671109817#6 671109817#7 671109817#8 671109817#9 23921882#0 23921882#1 197678461#0 197678461#1 259085025#0 -223333649#1 223333649#1"/>
    </vehicle>
    <vehicle id="95" depart="95.00">
        <route edges="197598745#0 -651362340#0 651362341#0 671109817#0 671109817#1 671109817#2 671109817#3 671109817#4 671109817#5 671109817#6 671109817#7 671109817#8 671109817#9 23921882#0 23921882#1 651362343 302666746#0 302666746#1 302666746#2 302666746#3 302666743#0 685765581#0 685765581#1 685765581#2 685765579#0 -685765577#0"/>
    </vehicle>
    <vehicle id="96" depart="96.00">
        <route edges="-651362340#0 651362341#0 671109817#0 671109817#1 671109817#2 671109817#3 671109817#4 671109817#5 671109817#6 671109817#7 671109817#8 671109817#9 23921882#0 23921882#1 651362343 302666746#0 302666746#1 302666746#2 302666746#3 302666743#0 685765581#0 685765581#1 685765581#2 685765579#0 685765579#1 8575236#0 8575236#1 8575236#2 685772908#1 685997305"/>
    </vehicle>
    
    <vehicle id="101" depart="101.00">
        <route edges="651362341#0 671109817#0 671109817#1 671109817#2 671109817#3 671109817#4 671109817#5 671109817#6 671109817#7 8095485#0 -223335370#1 -223335365#2"/>
    </vehicle>
    <vehicle id="102" depart="102.00">
        <route edges="223333682#0 -197598658#1 -197598658#0 -8071144#2 -8071144#0 778158671 671109817#6 671109817#7 671109817#8 671109817#9 23921882#0 23921882#1 197678461#0 197678461#1 259085025#0 259085025#1 -259085025#1"/>
    </vehicle>
    
    <vehicle id="116" depart="116.00">
        <route edges="223335370#3 -223335370#3 197598189#3 671109817#5 671109817#6 671109817#7 671109817#8 671109817#9 23921882#0 23921882#1 651362343 302666746#0 302666746#1 302666746#2 302666746#3 302666743#0 685765581#0 685765581#1 223333704#1 260865763#4"/>
    </vehicle>
    
    <vehicle id="119" depart="119.00">
        <route edges="223335370#3 -223335370#3 197598189#3 671109817#5 671109817#6 671109817#7 671109817#8 671109817#9 23921882#0 23921882#1 197678461#0 197678461#1 4408744#1 4408744#2 4408744#3 4408744#4 4408744#5 4408744#6 4408744#7 684420995#0 684420995#2 238615883"/>
    </vehicle>
    
    <vehicle id="122" depart="122.00">
        <route edges="-260770898#5 260770898#5 260770898#6 260770898#7 260770898#8 671109817#0 671109817#1 671109817#2 671109817#3 671109817#4 671109817#5 671109817#6 671109817#7 671109817#8 671109817#9 4367113#0 299749393 299749397#0"/>
    </vehicle>
    
    <vehicle id="124" depart="124.00">
        <route edges="260770898#0 260770898#5 260770898#6 260770898#7 260770898#8 671109817#0 671109817#1 671109817#2 671109817#3 671109817#4 671109817#5 671109817#6 671109817#7 671109817#8 671109817#9 23921882#0 23921882#1 651362343 302666746#0 -685997309 -685997310#1 -685997310#0"/>
    </vehicle>
    
    <vehicle id="126" depart="126.00">
        <route edges="-223333681#0 223333681#0 223333681#1 223333681#2 -8071144#0 778158671 671109817#6 671109817#7 671109817#8 671109817#9 23921882#0 23921882#1 197678461#0 197678461#1 259085025#0 259085025#1 223333718#5 223333718#6 -223333656#0 223333656#0"/>
    </vehicle>
    
    <vehicle id="128" depart="128.00">
        <route edges="-223333681#0 223333681#0 223333681#1 223333681#2 -8071144#0 778158671 671109817#6 671109817#7 671109817#8 671109817#9 23921882#0 23921882#1 197678461#0 197678461#1 259085025#0 259085025#1 -259085025#1"/>
    </vehicle>
    
    <vehicle id="142" depart="142.00">
        <route edges="223333682#1 -23730370#7 -23730370#6 -23730370#5 -23730370#4 -23730370#3 1142249270#1 1142249270#2 1142249270#3 1142249270#4 671109817#2 671109817#3 671109817#4 671109817#5 671109817#6 671109817#7 671109817#8 671109817#9 23921882#0 23921882#1 651362343 302666746#0 302666746#1 302666746#2 302666746#3 302666743#0 685765581#0 685765581#1 685765581#2 685765579#0"/>
    </vehicle>
    <vehicle id="143" depart="143.00">
        <route edges="651362340#3 23730370#1 260770898#5 260770898#6 260770898#7 260770898#8 671109817#0 671109817#1 671109817#2 671109817#3 671109817#4 671109817#5 671109817#6 671109817#7 671109817#8 671109817#9 23921882#0 23921882#1 651362343 302666746#0 302666746#1 302666746#2 302666746#3 302666743#0 685765581#0 685765581#1 685765581#2 685765579#0 685765579#1 8575236#0 223333688#1 -223333688#1"/>
    </vehicle>
    <vehicle id="144" depart="144.00">
        <route edges="197598745#0 -651362340#0 651362341#0 671109817#0 671109817#1 671109817#2 671109817#3 671109817#4 671109817#5 671109817#6 671109817#7 671109817#8 671109817#9 23921882#0 23921882#1 197678461#0 197678461#1 4408744#1 4408744#2 4408744#3 4408744#4 4408744#5 4408744#6 4408744#7 684420995#0 684420995#2 -684420995#2"/>
    </vehicle>
    
    <vehicle id="147" depart="147.00">
        <route edges="299749397#2 -23730370#8 -23730370#7 -23730370#6 -23730370#5 -23730370#4 -23730370#3 1142249270#1 1142249270#2 1142249270#3 1142249270#4 671109817#2 671109817#3 671109817#4 671109817#5 671109817#6 671109817#7 671109817#8 671109817#9 23921882#0 23921882#1 651362343 302666746#0 302666746#1 223335354#0 368669404#0 223335365#2"/>
    </vehicle>
    
    <vehicle id="149" depart="149.00">
        <route edges="-223333681#1 223333681#1 223333681#2 -8071144#0 778158671 671109817#6 671109817#7 671109817#8 671109817#9 23921882#0 23921882#1 197678461#0 197678461#1 4408744#1 4408744#2 4408744#3 4408744#4 4408744#5 4408744#6 4408744#7 684420995#0 684420995#2 684420995#3"/>
    </vehicle>
    
    <vehicle id="153" depart="153.00">
        <route edges="-8071144#5 -8071144#4 -8071144#2 -8071144#0 778158671 671109817#6 671109817#7 671109817#8 671109817#9 23921882#0 23921882#1 651362343 302666746#0 302666746#1 302666746#2 302666746#3 302666743#0 685765581#0 685765581#1 685765581#2 685765579#0 685765577#1 685765578#0"/>
    </vehicle>
    
    <vehicle id="156" depart="156.00">
        <route edges="-651362340#0 651362341#0 671109817#0 671109817#1 671109817#2 671109817#3 671109817#4 671109817#5 671109817#6 671109817#7 671109817#8 671109817#9 23921882#0 23921882#1 651362343 302666746#0 302666746#1 302666746#2 302666746#3 302666743#0 685765581#0 685765581#1 685765581#2 -223333697#0"/>
    </vehicle>
    
    <vehicle id="158" depart="158.00">
        <route edges="197598659#2 -197598659#2 260770898#7 260770898#8 671109817#0 671109817#1 671109817#2 671109817#3 671109817#4 671109817#5 671109817#6 671109817#7 671109817#8 671109817#9 23921882#0 23921882#1 197678461#0 197678461#1 4408744#1 4408744#2 4408744#3 4408744#4 4408744#5 4408744#6 4408744#7 684420995#0 684420995#2 238615883"/>
    </vehicle>
    
    <vehicle id="160" depart="160.00">
        <route edges="671109817#4 671109817#5 671109817#6 671109817#7 671109817#8 671109817#9 23921882#0 23921882#1 651362343 302666746#0 302666746#1 302666746#2 302666746#3 302666743#0 685765581#0 685765581#1 685765581#2 685765579#0 685765579#1 8575236#0"/>
    </vehicle>
    
    <vehicle id="162" depart="162.00">
        <route edges="-197598659#1 1142249270#3 1142249270#4 671109817#2 671109817#3 671109817#4 671109817#5 671109817#6 671109817#7 671109817#8 671109817#9 23921882#0 23921882#1 197678461#0 197678461#1 259085025#0 259085025#1 223333718#5 223333718#6 -223333656#0 302666738#2"/>
    </vehicle>
    
    <vehicle id="167" depart="167.00">
        <route edges="671109817#6 671109817#7 8095485#0 8095485#1 368669404#2 368669404#3 368669404#4 985000006#2 651362341#0 671109817#0 671109817#1 671109817#2 671109817#3 671109817#4"/>
    </vehicle>
    
    <vehicle id="183" depart="183.00">
        <route edges="-651362340#2 -197598659#2 260770898#7 260770898#8 671109817#0 671109817#1 671109817#2 671109817#3 671109817#4 671109817#5 671109817#6 671109817#7 671109817#8 671109817#9 4367113#0 299749393 197678467 299749390#0"/>
    </vehicle>
    
    <vehicle id="186" depart="186.00">
        <route edges="299749397#2 -23730370#8 -23730370#7 -23730370#6 -23730370#5 -23730370#4 -23730370#3 1142249270#1 1142249270#2 1142249270#3 1142249270#4 671109817#2 671109817#3 671109817#4 671109817#5 671109817#6 671109817#7 671109817#8 671109817#9 23921882#0 23921882#1 651362343 302666746#0 302666746#1 302666746#2 302666746#3 302666743#0 685765581#0 685765581#1 685765581#2 223333697#1 260865763#3"/>
    </vehicle>
    
    <vehicle id="192" depart="192.00">
        <route edges="197598659#0 1142249270#3 1142249270#4 671109817#2 671109817#3 671109817#4 671109817#5 671109817#6 671109817#7 671109817#8 671109817#9 23921882#0 23921882#1 651362343 302666746#0 -685997309"/>
    </vehicle>
    
    <vehicle id="196" depart="196.00">
        <route edges="-8071144#2 -8071144#0 778158671 671109817#6 671109817#7 671109817#8 671109817#9 23921882#0 23921882#1 197678461#0 197678461#1 4408744#1 4408744#2 4408744#3 -223333647#3 223335361"/>
    </vehicle>
    
    <vehicle id="199" depart="199.00">
        <route edges="251383355#0 251383355#1 778158671 671109817#6 671109817#7 671109817#8 671109817#9 23921882#0 23921882#1 197678461#0 197678461#1 259085025#0 259085025#1 223333718#5 223333718#6 223333718#7 223333658#1"/>
    </vehicle>
    
    <vehicle id="203" depart="203.00">
        <route edges="-223333682#1 -223333682#0 223333681#1 223333681#2 -8071144#0 778158671 671109817#6 671109817#7 671109817#8 671109817#9 23921882#0 23921882#1 651362343 302666746#0 302666746#1 302666746#2 302666746#3 302666743#0 685765581#0 685765581#1 223333704#1"/>
    </vehicle>
    <vehicle id="204" depart="204.00">
        <route edges="23730370#7 -23730370#7 -23730370#6 -23730370#5 -23730370#4 -23730370#3 1142249270#1 1142249270#2 1142249270#3 1142249270#4 671109817#2 671109817#3 671109817#4 671109817#5 671109817#6 671109817#7 671109817#8 671109817#9 23921882#0 23921882#1 197678461#0 197678461#1 4408744#1 4408744#2 4408744#3 -223333647#3 223335361 104749654#3"/>
    </vehicle>
    
    <vehicle id="209" depart="209.00">
        <route edges="651362341#0 671109817#0 671109817#1 671109817#2 671109817#3 671109817#4 671109817#5 671109817#6 671109817#7 671109817#8 671109817#9 23921882#0 23921882#1 197678461#0 197678461#1 259085025#0 259085025#1 223333718#5 223333718#6 223333718#7 223333658#1 -223333658#1"/>
    
    <vehicle id="213" depart="213.00">
        <route edges="251383355#0 251383355#1 778158671 671109817#6 671109817#7 8095485#0 8095485#1 368669404#2 -197598189#1 -197598189#0"/>
    </vehicle>
    
    <vehicle id="216" depart="216.00">
        <route edges="-23730370#3 1142249270#1 1142249270#2 1142249270#3 1142249270#4 671109817#2 671109817#3 671109817#4 671109817#5 671109817#6 671109817#7 671109817#8 671109817#9 23921882#0 23921882#1 197678461#0 197678461#1 4408744#1 4408744#2 4408744#3 4408744#4 4408744#5 8082814#0"/>
    </vehicle>
    
    <vehicle id="229" depart="229.00">
        <route edges="23730370#5 -23730370#5 -23730370#4 -23730370#3 1142249270#1 1142249270#2 1142249270#3 1142249270#4 671109817#2 671109817#3 671109817#4 671109817#5 671109817#6 671109817#7 671109817#8 671109817#9 23921882#0 23921882#1 197678461#0 197678461#1 4408744#1 4408744#2 4408744#3 4408744#4 4408744#5 4408744#6 4408744#7 684420995#0 684420995#2 -684420995#2"/>
    </vehicle>
    <vehicle id="230" depart="230.00">
        <route edges="-223333681#1 223333681#1 223333681#2 -8071144#0 778158671 671109817#6 671109817#7 671109817#8 671109817#9 23921882#0 23921882#1 197678461#0 197678461#1 4408744#1 4408744#2 4408744#3 4408744#4 -685765578#1"/>
    </vehicle>
    
    <vehicle id="235" depart="235.00">
        <route edges="197598659#2 -197598659#2 260770898#7 260770898#8 671109817#0 671109817#1 671109817#2 671109817#3 671109817#4 671109817#5 671109817#6 671109817#7 671109817#8 671109817#9 23921882#0 23921882#1 651362343 302666746#0 302666746#1 223335354#0"/>
    </vehicle>
    
    <vehicle id="237" depart="237.00">
        <route edges="197598660#3 -8071144#2 -8071144#0 778158671 671109817#6 671109817#7 671109817#8 671109817#9 23921882#0 23921882#1 651362343 302666746#0 302666746#1 302666746#2 302666746#3 302666743#0 685765581#0 685765581#1 685765581#2 685765579#0"/>
    </vehicle>
    
    <vehicle id="239" depart="239.00">
        <route edges="671109817#1 671109817#2 671109817#3 671109817#4 671109817#5 671109817#6 671109817#7 671109817#8 671109817#9 23921882#0 23921882#1 651362343 302666746#0 302666746#1 223335354#0 302666747#1"/>
    </vehicle>
    
    <vehicle id="241" depart="241.00">
        <route edges="1142249270#3 1142249270#4 671109817#2 671109817#3 671109817#4 671109817#5 671109817#6 671109817#7 671109817#8 671109817#9 23921882#0 23921882#1 651362343 302666746#0 302666746#1"/>
    </vehicle>
    
    <vehicle id="243" depart="243.00">
        <route edges="197598660#3 -8071144#2 -8071144#0 778158671 671109817#6 671109817#7 671109817#8 671109817#9 23921882#0 23921882#1 651362343 302666746#0 302666746#1 302666746#2 302666746#3 302666743#0 302666743#1"/>
    </vehicle>
    
    <vehicle id="248" depart="248.00">
        <route edges="197598659#1 260770898#7 260770898#8 671109817#0 671109817#1 671109817#2 671109817#3 671109817#4 671109817#5 671109817#6 671109817#7 671109817#8 671109817#9 23921882#0 23921882#1 651362343 302666746#0 302666746#1 223335354#0 368669404#0 -223335365#1"/>
    </vehicle>
    
    <vehicle id="251" depart="251.00">
        <route edges="197598658#0 -197598658#0 -8071144#2 -8071144#0 778158671 671109817#6 671109817#7 8095485#0 8095485#1 8095485#2 223335369#2 223335369#3"/>
    </vehicle>
    <vehicle id="252" depart="252.00">
        <route edges="-197598659#2 260770898#7 260770898#8 671109817#0 671109817#1 671109817#2 671109817#3 671109817#4 671109817#5 671109817#6 671109817#7 671109817#8 671109817#9 23921882#0 23921882#1 197678461#0 197678461#1 4408744#1 4408744#2 4408744#3 4408744#4 4408744#5 4408744#6 4408744#7 684420997 298699445#1 252388729"/>
    </vehicle>
    
    <vehicle id="258" depart="258.00">
        <route edges="-651362340#1 -651362340#0 651362341#0 671109817#0 671109817#1 671109817#2 671109817#3 671109817#4 671109817#5 671109817#6 671109817#7 671109817#8 671109817#9 4367113#0 299749393 299749397#0 299749397#1 -197598658#2 -223333682#0"/>
    </vehicle>
    <vehicle id="259" depart="259.00">
        <route edges="-197598658#2 -197598658#1 -197598658#0 -8071144#2 -8071144#0 778158671 671109817#6 671109817#7 671109817#8 671109817#9 23921882#0 23921882#1 651362343 302666746#0 -685997309 -685997310#1 -685997310#0 -223333721#1 223333721#1"/>
    </vehicle>
    
    <vehicle id="262" depart="262.00">
        <route edges="251383354 651362341#0 671109817#0 671109817#1 671109817#2 671109817#3 671109817#4 671109817#5 671109817#6 671109817#7 671109817#8 671109817#9 23921882#0 23921882#1 651362343 302666746#0 302666746#1"/>
    </vehicle>
    <vehicle id="263" depart="263.00">
        <route edges="778158671 671109817#6 671109817#7 671109817#8 671109817#9 4367113#0 299749393 299749397#0 299749397#1 299749397#2 -23730370#8 -23730370#7 -23730370#6 -23730370#5"/>
    </vehicle>
    <vehicle id="264" depart="264.00">
        <route edges="-197598659#0 -8071144#0 778158671 671109817#6 671109817#7 671109817#8 671109817#9 23921882#0 23921882#1 651362343 302666746#0 -685997309 -685997310#1 -685997310#0 -223333721#1 -223333721#0"/>
    </vehicle>
    
    <vehicle id="282" depart="282.00">
        <route edges="651362341#0 671109817#0 671109817#1 671109817#2 671109817#3 671109817#4 671109817#5 671109817#6 671109817#7 671109817#8 671109817#9 23921882#0 23921882#1 651362343 302666746#0 -685997309 -685997310#1 -685997310#0 -223333721#1 -223333721#0 -685997308 499615983"/>
    </vehicle>
    
    <vehicle id="299" depart="299.00">
        <route edges="-197598189#3 197598189#3 671109817#5 671109817#6 671109817#7 671109817#8 671109817#9 4367113#0 299749393 299749397#0 223333681#0 223333681#1 223333681#2 8071144#2"/>
    </vehicle>
    
    <vehicle id="301" depart="301.00">
        <route edges="223333682#1 -23730370#7 -23730370#6 -23730370#5 -23730370#4 -23730370#3 1142249270#1 1142249270#2 1142249270#3 1142249270#4 671109817#2 671109817#3 671109817#4 671109817#5 671109817#6 671109817#7 671109817#8 671109817#9 23921882#0 23921882#1 651362343 302666746#0 302666746#1 302666746#2 302666746#3"/>
    </vehicle>
    
    <vehicle id="310" depart="310.00">
        <route edges="-651362340#1 -651362340#0 651362341#0 671109817#0 671109817#1 671109817#2 671109817#3 671109817#4 671109817#5 671109817#6 671109817#7 671109817#8 671109817#9 23921882#0 23921882#1 651362343 302666746#0 -685997309 -223333702#2"/>
    </vehicle>
    <vehicle id="311" depart="311.00">
        <route edges="-23730370#8 -23730370#7 -23730370#6 -23730370#5 -23730370#4 -23730370#3 1142249270#1 1142249270#2 1142249270#3 1142249270#4 671109817#2 671109817#3 671109817#4 671109817#5 671109817#6 671109817#7 671109817#8 671109817#9 23921882#0 23921882#1 651362343 302666746#0 -685997309 -223333702#2"/>
    </vehicle>
    
    <vehicle id="322" depart="322.00">
        <route edges="671109817#5 671109817#6 671109817#7 671109817#8 671109817#9 23921882#0 23921882#1 651362343 302666746#0 302666746#1 302666746#2 302666746#3 302666743#0 685765581#0 685765581#1 685765581#2 685765579#0 685765579#1 8575236#0 223333688#1 223333688#2 223333688#3"/>
    </vehicle>
    <vehicle id="323" depart="323.00">
        <route edges="671109817#6 671109817#7 8095485#0 223335370#2"/>
    </vehicle>
    
    <vehicle id="328" depart="328.00">
        <route edges="-223333681#0 223333681#0 223333681#1 223333681#2 -8071144#0 778158671 671109817#6 671109817#7 671109817#8 671109817#9 23921882#0 23921882#1 197678461#0 197678461#1 4408744#1 4408744#2 4408744#3 4408744#4 4408744#5 4408744#6 4408744#7 684421002#0 684421002#1 23924358"/>
    </vehicle>
    
    <vehicle id="331" depart="331.00">
        <route edges="985000008#0 -223335370#3 197598189#3 671109817#5 671109817#6 671109817#7 671109817#8 671109817#9 23921882#0 23921882#1 651362343 302666746#0 -685997309 -223333702#2 -223333702#1"/>
    </vehicle>
    
    <vehicle id="339" depart="339.00">
        <route edges="-260770898#7 260770898#7 260770898#8 671109817#0 671109817#1 671109817#2 671109817#3 671109817#4 671109817#5 671109817#6 671109817#7 671109817#8 671109817#9 23921882#0 23921882#1 197678461#0 197678461#1 259085025#0 -259085025#0"/>
    </vehicle>
    
    <vehicle id="343" depart="343.00">
        <route edges="223335370#3 -223335370#3 197598189#3 671109817#5 671109817#6 671109817#7 671109817#8 671109817#9 23921882#0 23921882#1 651362343 302666746#0 302666746#1 302666746#2 302666746#3 302666743#0 685765581#0 685765581#1 685765581#2 685765579#0 685765579#1 -685997307"/>
    </vehicle>
    
    <vehicle id="349" depart="349.00">
        <route edges="197598745#1 260770898#8 671109817#0 671109817#1 671109817#2 671109817#3 671109817#4 671109817#5 671109817#6 671109817#7 671109817#8 671109817#9 23921882#0 23921882#1 651362343 302666746#0 302666746#1 223335354#0"/>
    </vehicle>
    
    <vehicle id="352" depart="352.00">
        <route edges="-223335370#3 197598189#3 671109817#5 671109817#6 671109817#7 671109817#8 671109817#9 4367113#0 299749393 299749397#0 299749397#1 299749397#2 -23730370#8 -23730370#7 -23730370#6 -23730370#5 -23730370#4 -8071144#4 -8071144#2"/>
    </vehicle>
    
    <vehicle id="358" depart="358.00">
        <route edges="-197598660#3 1142249270#2 1142249270#3 1142249270#4 671109817#2 671109817#3 671109817#4 671109817#5 671109817#6 671109817#7 671109817#8 671109817#9 23921882#0 23921882#1 651362343 197678468"/>
    </vehicle>
    
    <vehicle id="362" depart="362.00">
        <route edges="778158671 671109817#6 671109817#7 8095485#0 8095485#1 368669404#2 368669404#3 985000008#2 985000008#3"/>
    </vehicle>
    
    <vehicle id="364" depart="364.00">
        <route edges="-197598660#3 1142249270#2 1142249270#3 1142249270#4 671109817#2 671109817#3 671109817#4 671109817#5 671109817#6 671109817#7 671109817#8 671109817#9 23921882#0 23921882#1 651362343 302666746#0 302666746#1 302666746#2"/>
    </vehicle>
    
    <vehicle id="369" depart="369.00">
        <route edges="1142249270#1 1142249270#2 1142249270#3 1142249270#4 671109817#2 671109817#3 671109817#4 671109817#5 671109817#6 671109817#7 671109817#8 671109817#9 23921882#0 23921882#1 197678461#0 197678461#1 4408744#1 4408744#2 4408744#3 -223333647#3 223335361 104749654#3"/>
    </vehicle>
    
    <vehicle id="376" depart="376.00">
        <route edges="197598659#1 260770898#7 260770898#8 671109817#0 671109817#1 671109817#2 671109817#3 671109817#4 671109817#5 671109817#6 671109817#7 671109817#8 671109817#9 23921882#0 23921882#1 651362343 302666746#0 302666746#1 302666746#2 302666746#3 302666743#0 685765581#0 685765581#1 223333704#1"/>
    </vehicle>
    
    <vehicle id="379" depart="379.00">
        <route edges="-23730370#7 -23730370#6 -23730370#5 -23730370#4 -23730370#3 1142249270#1 1142249270#2 1142249270#3 1142249270#4 671109817#2 671109817#3 671109817#4 671109817#5 671109817#6 671109817#7 671109817#8 671109817#9 23921882#0 23921882#1 651362343 302666746#0 302666746#1 302666746#2 302666746#3 302666743#0 685765581#0 685765581#1 685765581#2 685765579#0 685765579#1 8575236#0 8575236#1 8575236#2 685772908#1 137141225#0 137141225#1 137141225#2 137141225#3"/>
    </vehicle>
    
    <vehicle id="388" depart="388.00">
        <route edges="985000008#0 -223335370#3 197598189#3 671109817#5 671109817#6 671109817#7 671109817#8 671109817#9 23921882#0 23921882#1 651362343 302666746#0 302666746#1 302666746#2 302666746#3 302666743#0 685765581#0 685765581#1"/>
    </vehicle>
    <vehicle id="389" depart="389.00">
        <route edges="223333654#0 -197598658#0 -8071144#2 -8071144#0 778158671 671109817#6 671109817#7 671109817#8 671109817#9 23921882#0 23921882#1 651362343 302666746#0 -685997309 -223333702#2 -223333702#1"/>
    </vehicle>
    
    <vehicle id="398" depart="398.00">
        <route edges="197598660#1 260770898#6 260770898#7 260770898#8 671109817#0 671109817#1 671109817#2 671109817#3 671109817#4 671109817#5 671109817#6 671109817#7 671109817#8 671109817#9 23921882#0 23921882#1 651362343 302666746#0 -685997309 685997309"/>
    </vehicle>
    
    <vehicle id="402" depart="402.00">
        <route edges="223333682#1 -23730370#7 -23730370#6 -23730370#5 -23730370#4 -23730370#3 1142249270#1 1142249270#2 1142249270#3 1142249270#4 671109817#2 671109817#3 671109817#4 671109817#5 671109817#6 671109817#7 671109817#8 671109817#9 23921882#0 23921882#1 197678461#0 197678461#1 259085025#0 259085025#1 223333718#5 223333718#6 -223333718#6"/>
    </vehicle>
    
    <vehicle id="406" depart="406.00">
        <route edges="-23730370#7 -23730370#6 -23730370#5 -23730370#4 -23730370#3 1142249270#1 1142249270#2 1142249270#3 1142249270#4 671109817#2 671109817#3 671109817#4 671109817#5 671109817#6 671109817#7 671109817#8 671109817#9 23921882#0 23921882#1 197678461#0 197678461#1 4408744#1 4408744#2 4408744#3 4408744#4 4408744#5 4408744#6 4408744#7 684420997 298699445#1 298699445#2"/>
    </vehicle>
    
    <vehicle id="413" depart="413.00">
        <route edges="-197598660#2 260770898#6 260770898#7 260770898#8 671109817#0 671109817#1 671109817#2 671109817#3 671109817#4 671109817#5 671109817#6 671109817#7 671109817#8 671109817#9 23921882#0 23921882#1 651362343 302666746#0 -685997309 -685997310#1 -685997310#0 223333697#3"/>
    
    <vehicle id="415" depart="415.00">