<?xml version="1.0" encoding="UTF-8"?>

<!-- generated on Tue Oct 10 00:57:27 2023 by Eclipse SUMO duarouter Version 1.8.0
<configuration xmlns:xsi="http://www.w3.org/2001/XMLSchema-instance" xsi:noNamespaceSchemaLocation="http://sumo.dlr.de/xsd/duarouterConfiguration.xsd">

    <input>
        <net-file value="downtown.net.xml"/>
        <route-files value="downtown.trips.xml"/>
    </input>

    <output>
        <output-file value="downtown.rou.xml"/>
        <alternatives-output value="downtown.rou.alt.xml"/>
    </output>

    <report>
        <ignore-errors value="true"/>
    </report>

</configuration>
-->

<routes xmlns:xsi="http://www.w3.org/2001/XMLSchema-instance" xsi:noNamespaceSchemaLocation="http://sumo.dlr.de/xsd/routes_file.xsd">
    
    <vehicle id="1" depart="0.01">
        <route edges="-8095485#0 671109817#8 671109817#9 23921882#0 23921882#1 651362343 302666746#0 -685997309 -223333702#2 260865763#5"/>
    </vehicle>
    
    <vehicle id="2" depart="0.02">
        <route edges=" 778158671 671109817#6 671109817#7 671109817#8 671109817#9 23921882#0 23921882#1 651362343 302666746#0 -685997309 -223333702#2 260865763#5"/>
    </vehicle>
    
    <vehicle id="3" depart="0.03">
        <route edges=" -8095485#0 671109817#8 671109817#9 23921882#0 23921882#1 197678461#0 197678461#1 259085025#0 259085025#1 223333718#5 104749654#4"/>
    </vehicle>
    
    <vehicle id="4" depart="0.04">
        <route edges=" 778158671 671109817#6 671109817#7 671109817#8 671109817#9 23921882#0 23921882#1 197678461#0 197678461#1 4408744#1 4408744#2 4408744#3 4408744#4 4408744#5 4408744#6 4408744#7 684420997 298699445#1 298699445#2 298699445#3 300128902"/>
    </vehicle>
    
    <vehicle id="5" depart="0.05">
        <route edges=" -8095485#0 671109817#8 671109817#9 23921882#0 23921882#1 197678461#0 197678461#1 4408744#1 4408744#2 236721922#0"/>
    </vehicle>
    
    <vehicle id="6" depart="0.06">
        <route edges=" 778158671 671109817#6 671109817#7 671109817#8 671109817#9 23921882#0 23921882#1 197678461#0 197678461#1 4408744#1 4408744#2 4408744#3 -223333647#3 -223333647#1 -268280780"/>
    </vehicle>
    
    <vehicle id="7" depart="0.07">
        <route edges=" -8095485#0 671109817#8 671109817#9 23921882#0 23921882#1 651362343 302666746#0 302666746#1 302666746#2 302666746#3 302666743#0 685765581#0 685765581#1 685765581#2 685765579#0 685765579#1 8575236#0 8575236#1 8575236#2 685772908#1 137141225#0 137141225#1 137141225#2 137141225#3 137141225#4"/>
    </vehicle>
    
    <vehicle id="8" depart="0.08">
        <route edges=" 671109817#8 671109817#9 23921882#0 23921882#1 197678461#0 197678461#1 4408744#1 4408744#2 4408744#3 4408744#4 4408744#5 4408744#6 4408744#7 684420997 298699445#1 298699445#2 298699445#3 300128902"/>
    </vehicle>
    
    <vehicle id="9" depart="0.09">
        <route edges=" 671109817#9 23921882#0 23921882#1 651362343 302666746#0 302666746#1 302666746#2 302666746#3 302666743#0 685765581#0 685765581#1 685765581#2 685765579#0 685765579#1 8575236#0 8575236#1 8575236#2 685772908#1 137141225#0 137141225#1 137141225#2 137141225#3 252388728"/>
    </vehicle>
    
    <vehicle id="10" depart="0.10">
        <route edges=" 671109817#8 671109817#9 23921882#0 23921882#1 197678461#0 197678461#1 259085025#0 259085025#1 223333718#5"/>
    </vehicle>
    <vehicle id="11" depart="0.11">
        <route edges="671109817#9 4367113#0 299749393 299749397#0 299749397#1 299749397#2"/>
    </vehicle>
    <vehicle id="12" depart="00.12">
        <route edges="671109817#9 23921882#0 23921882#1 651362343 302666746#0 -685997309 -685997310#1 -685997310#0 -223333721#1 -223333721#0 223333721#0"/>
    </vehicle>
    
    <vehicle id="13" depart="00.13">
        <route edges="671109817#9 23921882#0 23921882#1 651362343 302666746#0 302666746#1 302666746#2 302666746#3 302666743#0 685765581#0 685765581#1 685765581#2 685765579#0 685765579#1 8575236#0 8575236#1 8575236#2 685772908#1 137141225#0 137141225#1 137141225#2 137141225#3 252388728"/>
    </vehicle>
    
    <vehicle id="14" depart="00.14">
        <route edges="671109817#8 671109817#9 23921882#0 23921882#1 651362343 302666746#0 302666746#1 302666746#2 302666746#3 302666743#0 685765581#0 685765581#1 685765581#2 685765579#0 685765579#1 -685997307 685997307"/>
    </vehicle>
    
    <vehicle id="15" depart="00.15">
        <route edges="671109817#8 671109817#9 23921882#0 23921882#1 197678461#0 197678461#1 259085025#0 -223333649#1"/>
    </vehicle>
    
    <vehicle id="16" depart="00.16">
        <route edges="671109817#8 671109817#9 23921882#0 23921882#1 651362343 302666746#0 302666746#1 302666746#2 302666746#3 302666743#0 685765581#0 685765581#1 685765581#2 685765579#0 685765579#1 8575236#0 223333688#1"/>
    </vehicle>
    
    <vehicle id="17" depart="00.17">
        <route edges="671109817#8 671109817#9 23921882#0 23921882#1 197678461#0 197678461#1 259085025#0 -259085025#0"/>
    </vehicle>
    
    <vehicle id="18" depart="00.18">
        <route edges="671109817#7 671109817#8 671109817#9 23921882#0 23921882#1 197678461#0 197678461#1 259085025#0 259085025#1"/>
    </vehicle>
    
    <vehicle id="19" depart="00.19">
        <route edges=" 671109817#7 671109817#8 671109817#9 23921882#0 23921882#1 197678461#0 197678461#1 259085025#0 259085025#1 223333718#5 223333718#6 223333718#7 223333658#1 -223333658#1"/>
    </vehicle>
    <vehicle id="20" depart="00.20">
        <route edges="1142249270#4 671109817#2 671109817#3 671109817#4 671109817#5 671109817#6 671109817#7 671109817#8 671109817#9 23921882#0 23921882#1 651362343 302666746#0 302666746#1 302666746#2"/>
    </vehicle>
    <vehicle id="21" depart="00.21">
        <route edges="671109817#0 671109817#1 671109817#2 671109817#3 671109817#4 671109817#5 671109817#6 671109817#7 671109817#8 671109817#9 23921882#0 23921882#1 651362343 302666746#0 -685997309 -685997310#1 -685997310#0 -223333721#1 -223333721#0 -685997308 -223333688#3"/>
    </vehicle>
    <vehicle id="22" depart="00.22">
        <route edges="1142249270#4 671109817#2 671109817#3 671109817#4 671109817#5 671109817#6 671109817#7 671109817#8 671109817#9 23921882#0 23921882#1 651362343 197678468 1078922930"/>
    </vehicle>
    <vehicle id="23" depart="00.23">
        <route edges="671109817#3 671109817#4 671109817#5 671109817#6 671109817#7 671109817#8 671109817#9 23921882#0 23921882#1 197678461#0 197678461#1 4408744#1 4408744#2 4408744#3 4408744#4 -4408744#4"/>
    </vehicle>
    <vehicle id="24" depart="00.24">
        <route edges="1142249270#4 671109817#2 671109817#3 671109817#4 671109817#5 671109817#6 671109817#7 671109817#8 671109817#9 23921882#0 23921882#1 197678461#0 197678461#1 259085025#0 -223333649#1 223333649#1"/>
    </vehicle>
    <vehicle id="25" depart="00.25">
        <route edges="671109817#0 671109817#1 671109817#2 671109817#3 671109817#4 671109817#5 671109817#6 671109817#7 671109817#8 671109817#9 23921882#0 23921882#1 651362343 302666746#0 302666746#1 302666746#2 302666746#3 302666743#0 685765581#0 685765581#1 685765581#2 685765579#0 -685765577#0"/>
    </vehicle>
    <vehicle id="26" depart="00.26">
        <route edges="671109817#0 671109817#1 671109817#2 671109817#3 671109817#4 671109817#5 671109817#6 671109817#7 671109817#8 671109817#9 23921882#0 23921882#1 651362343 302666746#0 302666746#1 302666746#2 302666746#3 302666743#0 685765581#0 685765581#1 685765581#2 685765579#0 685765579#1 8575236#0 8575236#1 8575236#2 685772908#1 685997305"/>
    </vehicle>
    
    <vehicle id="27" depart="00.27">
        <route edges="651362341#0 671109817#0 671109817#1 671109817#2 671109817#3 671109817#4 671109817#5 671109817#6 671109817#7 8095485#0 -223335370#1 -223335365#2"/>
    </vehicle>
    <vehicle id="28" depart="00.28">
        <route edges="778158671 671109817#6 671109817#7 671109817#8 671109817#9 23921882#0 23921882#1 197678461#0 197678461#1 259085025#0 259085025#1 -259085025#1"/>
    </vehicle>
    
    <vehicle id="29" depart="00.29">
        <route edges="197598189#3 671109817#5 671109817#6 671109817#7 671109817#8 671109817#9 23921882#0 23921882#1 651362343 302666746#0 302666746#1 302666746#2 302666746#3 302666743#0 685765581#0 685765581#1 223333704#1 260865763#4"/>
    </vehicle>
    
    <vehicle id="30" depart="00.30">
        <route edges="197598189#3 671109817#5 671109817#6 671109817#7 671109817#8 671109817#9 23921882#0 23921882#1 197678461#0 197678461#1 4408744#1 4408744#2 4408744#3 4408744#4 4408744#5 4408744#6 4408744#7 684420995#0 684420995#2 238615883"/>
    </vehicle>
    <vehicle id="31" depart="00.31">
        <route edges="1142249270#4 671109817#2 671109817#3 671109817#4 671109817#5 671109817#6 671109817#7 671109817#8 671109817#9 23921882#0 23921882#1 197678461#0 197678461#1 4408744#1 4408744#2 4408744#3 -223333647#3 223335361 104749654#3"/>
    </vehicle>
    <vehicle id="32" depart="00.32">
        <route edges="260770898#8 671109817#0 671109817#1 671109817#2 671109817#3 671109817#4 671109817#5 671109817#6 671109817#7 671109817#8 671109817#9 23921882#0 23921882#1 651362343 302666746#0 -685997309 -685997310#1 -685997310#0"/>
    </vehicle>
    
    <vehicle id="33" depart="00.33">
        <route edges="-223333681#0 223333681#0 223333681#1 223333681#2 -8071144#0 778158671 671109817#6 671109817#7 671109817#8 671109817#9 23921882#0 23921882#1 197678461#0 197678461#1 259085025#0 259085025#1 223333718#5 223333718#6 -223333656#0 223333656#0"/>
    </vehicle>
    
    <vehicle id="34" depart="00.34">
        <route edges="778158671 671109817#6 671109817#7 671109817#8 671109817#9 23921882#0 23921882#1 197678461#0 197678461#1 259085025#0 259085025#1 -259085025#1"/>
    </vehicle>
    
    <vehicle id="35" depart="00.35">
        <route edges="1142249270#4 671109817#2 671109817#3 671109817#4 671109817#5 671109817#6 671109817#7 671109817#8 671109817#9 23921882#0 23921882#1 651362343 302666746#0 302666746#1 302666746#2 302666746#3 302666743#0 685765581#0 685765581#1 685765581#2 685765579#0"/>
    </vehicle>
    <vehicle id="36" depart="00.36">
        <route edges="260770898#8 671109817#0 671109817#1 671109817#2 671109817#3 671109817#4 671109817#5 671109817#6 671109817#7 671109817#8 671109817#9 23921882#0 23921882#1 651362343 302666746#0 302666746#1 302666746#2 302666746#3 302666743#0 685765581#0 685765581#1 685765581#2 685765579#0 685765579#1 8575236#0 223333688#1 -223333688#1"/>
    </vehicle>
    <vehicle id="37" depart="00.37">
        <route edges="651362341#0 671109817#0 671109817#1 671109817#2 671109817#3 671109817#4 671109817#5 671109817#6 671109817#7 671109817#8 671109817#9 23921882#0 23921882#1 197678461#0 197678461#1 4408744#1 4408744#2 4408744#3 4408744#4 4408744#5 4408744#6 4408744#7 684420995#0 684420995#2 -684420995#2"/>
    </vehicle>
    
    <vehicle id="38" depart="00.38">
        <route edges="1142249270#4 671109817#2 671109817#3 671109817#4 671109817#5 671109817#6 671109817#7 671109817#8 671109817#9 23921882#0 23921882#1 651362343 302666746#0 302666746#1 223335354#0 368669404#0 223335365#2"/>
    </vehicle>
    
    <vehicle id="39" depart="00.39">
        <route edges="778158671 671109817#6 671109817#7 671109817#8 671109817#9 23921882#0 23921882#1 197678461#0 197678461#1 4408744#1 4408744#2 4408744#3 4408744#4 4408744#5 4408744#6 4408744#7 684420995#0 684420995#2 684420995#3"/>
    </vehicle>
    
    <vehicle id="40" depart="00.40">
        <route edges="778158671 671109817#6 671109817#7 671109817#8 671109817#9 23921882#0 23921882#1 651362343 302666746#0 302666746#1 302666746#2 302666746#3 302666743#0 685765581#0 685765581#1 685765581#2 685765579#0 685765577#1 685765578#0"/>
    </vehicle>
    
    <vehicle id="41" depart="00.41">
        <route edges="651362341#0 671109817#0 671109817#1 671109817#2 671109817#3 671109817#4 671109817#5 671109817#6 671109817#7 671109817#8 671109817#9 23921882#0 23921882#1 651362343 302666746#0 302666746#1 302666746#2 302666746#3 302666743#0 685765581#0 685765581#1 685765581#2 -223333697#0"/>
    </vehicle>
    
    <vehicle id="42" depart="00.42">
        <route edges="260770898#8 671109817#0 671109817#1 671109817#2 671109817#3 671109817#4 671109817#5 671109817#6 671109817#7 671109817#8 671109817#9 23921882#0 23921882#1 197678461#0 197678461#1 4408744#1 4408744#2 4408744#3 4408744#4 4408744#5 4408744#6 4408744#7 684420995#0 684420995#2 238615883"/>
    </vehicle>
    
    <vehicle id="43" depart="00.43">
        <route edges="671109817#4 671109817#5 671109817#6 671109817#7 671109817#8 671109817#9 23921882#0 23921882#1 651362343 302666746#0 302666746#1 302666746#2 302666746#3 302666743#0 685765581#0 685765581#1 685765581#2 685765579#0 685765579#1 8575236#0"/>
    </vehicle>
    
    <vehicle id="44" depart="00.44">
        <route edges="1142249270#4 671109817#2 671109817#3 671109817#4 671109817#5 671109817#6 671109817#7 671109817#8 671109817#9 23921882#0 23921882#1 197678461#0 197678461#1 259085025#0 259085025#1 223333718#5 223333718#6 -223333656#0 302666738#2"/>
    </vehicle>
    <vehicle id="45" depart="00.45">
        <route edges="260770898#8 671109817#0 671109817#1 671109817#2 671109817#3 671109817#4 671109817#5 671109817#6 671109817#7 671109817#8 671109817#9 23921882#0 23921882#1 651362343 302666746#0 302666746#1 302666746#2 302666746#3 302666743#0 685765581#0 685765581#1 223333704#1"/>
    </vehicle>
    <vehicle id="46" depart="00.46">
        <route edges="1142249270#4 671109817#2 671109817#3 671109817#4 671109817#5 671109817#6 671109817#7 671109817#8 671109817#9 23921882#0 23921882#1 651362343 302666746#0 302666746#1 302666746#2 302666746#3 302666743#0 685765581#0 685765581#1 685765581#2 685765579#0 685765579#1 8575236#0 8575236#1 8575236#2 685772908#1 137141225#0 137141225#1 137141225#2 137141225#3"/>
    </vehicle>
    <vehicle id="47" depart="00.47">
        <route edges="1142249270#4 671109817#2 671109817#3 671109817#4 671109817#5 671109817#6 671109817#7 671109817#8 671109817#9 23921882#0 23921882#1 651362343 302666746#0 302666746#1 302666746#2 302666746#3 302666743#0 685765581#0 685765581#1 685765581#2 223333697#1 260865763#3"/>
    </vehicle>
    <vehicle id="48" depart="00.48">
        <route edges="197598659#0 1142249270#3 1142249270#4 671109817#2 671109817#3 671109817#4 671109817#5 671109817#6 671109817#7 671109817#8 671109817#9 23921882#0 23921882#1 651362343 302666746#0 -685997309"/>
    </vehicle>
    
    <vehicle id="49" depart="00.49">
        <route edges="-8071144#2 -8071144#0 778158671 671109817#6 671109817#7 671109817#8 671109817#9 23921882#0 23921882#1 197678461#0 197678461#1 4408744#1 4408744#2 4408744#3 -223333647#3 223335361"/>
    </vehicle>
    
    <vehicle id="50" depart="00.50">
        <route edges="778158671 671109817#6 671109817#7 671109817#8 671109817#9 23921882#0 23921882#1 197678461#0 197678461#1 259085025#0 259085025#1 223333718#5 223333718#6 223333718#7 223333658#1"/>
        </vehicle>
    <vehicle id="51" depart="00.51">
        <route edges="778158671 671109817#6 671109817#7 671109817#8 671109817#9 23921882#0 23921882#1 651362343 302666746#0 302666746#1 302666746#2 302666746#3 302666743#0 685765581#0 685765581#1 223333704#1"/>
    </vehicle>
    <vehicle id="52" depart="00.52">
        <route edges="1142249270#4 671109817#2 671109817#3 671109817#4 671109817#5 671109817#6 671109817#7 671109817#8 671109817#9 23921882#0 23921882#1 197678461#0 197678461#1 4408744#1 4408744#2 4408744#3 -223333647#3 223335361 104749654#3"/>
    </vehicle>
    
    <vehicle id="53" depart="00.53">
        <route edges="651362341#0 671109817#0 671109817#1 671109817#2 671109817#3 671109817#4 671109817#5 671109817#6 671109817#7 671109817#8 671109817#9 23921882#0 23921882#1 197678461#0 197678461#1 259085025#0 259085025#1 223333718#5 223333718#6 223333718#7 223333658#1 -223333658#1"/>
    </vehicle>
    <vehicle id="54" depart="00.54">
        <route edges="197598189#3 671109817#5 671109817#6 671109817#7 671109817#8 671109817#9 23921882#0 23921882#1 651362343 302666746#0 302666746#1 302666746#2 302666746#3 302666743#0 685765581#0 685765581#1"/>
    </vehicle>
    <vehicle id="55" depart="00.55">
        <route edges="1142249270#4 671109817#2 671109817#3 671109817#4 671109817#5 671109817#6 671109817#7 671109817#8 671109817#9 23921882#0 23921882#1 197678461#0 197678461#1 4408744#1 4408744#2 4408744#3 4408744#4 4408744#5 8082814#0"/>
    </vehicle>
    <vehicle id="56" depart="00.56">
        <route edges="1142249270#4 671109817#2 671109817#3 671109817#4 671109817#5 671109817#6 671109817#7 671109817#8 671109817#9 23921882#0 23921882#1 197678461#0 197678461#1 4408744#1 4408744#2 4408744#3 4408744#4 4408744#5 4408744#6 4408744#7 684420995#0 684420995#2 -684420995#2"/>
    </vehicle>
    <vehicle id="57" depart="00.57">
        <route edges="-223333681#1 223333681#1 223333681#2 -8071144#0 778158671 671109817#6 671109817#7 671109817#8 671109817#9 23921882#0 23921882#1 197678461#0 197678461#1 4408744#1 4408744#2 4408744#3 4408744#4 -685765578#1"/>
    </vehicle>
    
    <vehicle id="58" depart="00.58">
        <route edges="260770898#8 671109817#0 671109817#1 671109817#2 671109817#3 671109817#4 671109817#5 671109817#6 671109817#7 671109817#8 671109817#9 23921882#0 23921882#1 651362343 302666746#0 302666746#1 223335354#0"/>
    </vehicle>
    
    <vehicle id="59" depart="00.59">
        <route edges="778158671 671109817#6 671109817#7 671109817#8 671109817#9 23921882#0 23921882#1 651362343 302666746#0 302666746#1 302666746#2 302666746#3 302666743#0 685765581#0 685765581#1 685765581#2 685765579#0"/>
    </vehicle>
    
    <vehicle id="60" depart="00.60">
        <route edges="671109817#1 671109817#2 671109817#3 671109817#4 671109817#5 671109817#6 671109817#7 671109817#8 671109817#9 23921882#0 23921882#1 651362343 302666746#0 302666746#1 223335354#0 302666747#1"/>
    </vehicle>
    
    <vehicle id="61" depart="00.61">
        <route edges="1142249270#3 1142249270#4 671109817#2 671109817#3 671109817#4 671109817#5 671109817#6 671109817#7 671109817#8 671109817#9 23921882#0 23921882#1 651362343 302666746#0 302666746#1"/>
    </vehicle>
    
    <vehicle id="62" depart="00.62">
        <route edges="778158671 671109817#6 671109817#7 671109817#8 671109817#9 23921882#0 23921882#1 651362343 302666746#0 302666746#1 302666746#2 302666746#3 302666743#0 302666743#1"/>
    </vehicle>
    
    <vehicle id="63" depart="00.63">
        <route edges="260770898#8 671109817#0 671109817#1 671109817#2 671109817#3 671109817#4 671109817#5 671109817#6 671109817#7 671109817#8 671109817#9 23921882#0 23921882#1 651362343 302666746#0 302666746#1 223335354#0 368669404#0 -223335365#1"/>
    </vehicle>
    <vehicle id="64" depart="00.64">
        <route edges="778158671 671109817#6 671109817#7 671109817#8 671109817#9 23921882#0 23921882#1 651362343 302666746#0 -685997309 -223333702#2 -223333702#1"/>
    </vehicle>
    <vehicle id="65" depart="00.65">
        <route edges="260770898#8 671109817#0 671109817#1 671109817#2 671109817#3 671109817#4 671109817#5 671109817#6 671109817#7 671109817#8 671109817#9 23921882#0 23921882#1 197678461#0 197678461#1 4408744#1 4408744#2 4408744#3 4408744#4 4408744#5 4408744#6 4408744#7 684420997 298699445#1 252388729"/>
    </vehicle>
    <vehicle id="66" depart="00.66">
        <route edges="260770898#8 671109817#0 671109817#1 671109817#2 671109817#3 671109817#4 671109817#5 671109817#6 671109817#7 671109817#8 671109817#9 23921882#0 23921882#1 651362343 302666746#0 -685997309 685997309"/>
    </vehicle>
    <vehicle id="67" depart="00.67">
        <route edges="778158671 671109817#6 671109817#7 671109817#8 671109817#9 23921882#0 23921882#1 651362343 302666746#0 -685997309 -685997310#1 -685997310#0 -223333721#1 223333721#1"/>
    </vehicle>
    
    <vehicle id="68" depart="00.68">
        <route edges="651362341#0 671109817#0 671109817#1 671109817#2 671109817#3 671109817#4 671109817#5 671109817#6 671109817#7 671109817#8 671109817#9 23921882#0 23921882#1 651362343 302666746#0 302666746#1"/>
    </vehicle>
    <vehicle id="69" depart="00.69">
        <route edges="1142249270#4 671109817#2 671109817#3 671109817#4 671109817#5 671109817#6 671109817#7 671109817#8 671109817#9 23921882#0 23921882#1 197678461#0 197678461#1 259085025#0 259085025#1 223333718#5 223333718#6 -223333718#6"/>
    </vehicle>
    <vehicle id="70" depart="00.70">
        <route edges="-197598659#0 -8071144#0 778158671 671109817#6 671109817#7 671109817#8 671109817#9 23921882#0 23921882#1 651362343 302666746#0 -685997309 -685997310#1 -685997310#0 -223333721#1 -223333721#0"/>
    </vehicle>
    
    <vehicle id="71" depart="00.71">
        <route edges="651362341#0 671109817#0 671109817#1 671109817#2 671109817#3 671109817#4 671109817#5 671109817#6 671109817#7 671109817#8 671109817#9 23921882#0 23921882#1 651362343 302666746#0 -685997309 -685997310#1 -685997310#0 -223333721#1 -223333721#0 -685997308 499615983"/>
    </vehicle>
    <vehicle id="72" depart="00.72">
        <route edges="1142249270#4 671109817#2 671109817#3 671109817#4 671109817#5 671109817#6 671109817#7 671109817#8 671109817#9 23921882#0 23921882#1 197678461#0 197678461#1 4408744#1 4408744#2 4408744#3 4408744#4 4408744#5 4408744#6 4408744#7 684420997 298699445#1 298699445#2"/>
    </vehicle>
    <vehicle id="73" depart="00.73">
        <route edges="1142249270#4 671109817#2 671109817#3 671109817#4 671109817#5 671109817#6 671109817#7 671109817#8 671109817#9 23921882#0 23921882#1 651362343 302666746#0 302666746#1 302666746#2 302666746#3"/>
    </vehicle>
    
    <vehicle id="74" depart="00.74">
        <route edges="651362341#0 671109817#0 671109817#1 671109817#2 671109817#3 671109817#4 671109817#5 671109817#6 671109817#7 671109817#8 671109817#9 23921882#0 23921882#1 651362343 302666746#0 -685997309 -223333702#2"/>
    </vehicle>
    <vehicle id="75" depart="00.75">
        <route edges="1142249270#4 671109817#2 671109817#3 671109817#4 671109817#5 671109817#6 671109817#7 671109817#8 671109817#9 23921882#0 23921882#1 651362343 302666746#0 -685997309 -223333702#2"/>
    </vehicle>
    
    <vehicle id="76" depart="00.76">
        <route edges="671109817#5 671109817#6 671109817#7 671109817#8 671109817#9 23921882#0 23921882#1 651362343 302666746#0 302666746#1 302666746#2 302666746#3 302666743#0 685765581#0 685765581#1 685765581#2 685765579#0 685765579#1 8575236#0 223333688#1 223333688#2 223333688#3"/>
    </vehicle>
    <vehicle id="77" depart="00.77">
        <route edges="671109817#6 671109817#7 8095485#0 223335370#2"/>
    </vehicle>
    
    <vehicle id="78" depart="00.78">
        <route edges="778158671 671109817#6 671109817#7 671109817#8 671109817#9 23921882#0 23921882#1 197678461#0 197678461#1 4408744#1 4408744#2 4408744#3 4408744#4 4408744#5 4408744#6 4408744#7 684421002#0 684421002#1 23924358"/>
    </vehicle>
    
    <vehicle id="79" depart="00.79">
        <route edges="197598189#3 671109817#5 671109817#6 671109817#7 671109817#8 671109817#9 23921882#0 23921882#1 651362343 302666746#0 -685997309 -223333702#2 -223333702#1"/>
    </vehicle>
    
    <vehicle id="80" depart="00.80">
        <route edges="260770898#8 671109817#0 671109817#1 671109817#2 671109817#3 671109817#4 671109817#5 671109817#6 671109817#7 671109817#8 671109817#9 23921882#0 23921882#1 197678461#0 197678461#1 259085025#0 -259085025#0"/>
    </vehicle>
    
    <vehicle id="81" depart="00.81">
        <route edges="197598189#3 671109817#5 671109817#6 671109817#7 671109817#8 671109817#9 23921882#0 23921882#1 651362343 302666746#0 302666746#1 302666746#2 302666746#3 302666743#0 685765581#0 685765581#1 685765581#2 685765579#0 685765579#1 -685997307"/>
    </vehicle>
    <vehicle id="82" depart="00.82">
        <route edges="197598745#1 260770898#8 671109817#0 671109817#1 671109817#2 671109817#3 671109817#4 671109817#5 671109817#6 671109817#7 671109817#8 671109817#9 23921882#0 23921882#1 651362343 302666746#0 302666746#1 223335354#0"/>
    </vehicle>
    <vehicle id="83" depart="00.83">
        <route edges="-223335370#3 197598189#3 671109817#5 671109817#6 671109817#7 671109817#8 671109817#9 4367113#0 299749393 299749397#0 299749397#1 299749397#2 -23730370#8 -23730370#7 -23730370#6 -23730370#5 -23730370#4 -8071144#4 -8071144#2"/>
    </vehicle>
    
    <vehicle id="84" depart="00.84">
        <route edges="-197598660#3 1142249270#2 1142249270#3 1142249270#4 671109817#2 671109817#3 671109817#4 671109817#5 671109817#6 671109817#7 671109817#8 671109817#9 23921882#0 23921882#1 651362343 197678468"/>
    </vehicle>
    <vehicle id="85" depart="00.85">
        <route edges="260770898#8 671109817#0 671109817#1 671109817#2 671109817#3 671109817#4 671109817#5 671109817#6 671109817#7 671109817#8 671109817#9 23921882#0 23921882#1 651362343 302666746#0 -685997309 -685997310#1 -685997310#0 223333697#3"/>
    </vehicle>
    <vehicle id="86" depart="00.86">
        <route edges="671109817#7 671109817#8 671109817#9 23921882#0 23921882#1 197678461#0 197678461#1 4408744#1 4408744#2 4408744#3 -223333647#3 -223333647#1 223333647#1"/>
    </vehicle>
    <vehicle id="87" depart="00.87">
        <route edges="671109817#6 671109817#7 671109817#8 671109817#9 23921882#0 23921882#1 197678461#0 197678461#1 4408744#1 4408744#2 4408744#3 -223333647#3 223333647#3"/>
    </vehicle>
    <vehicle id="88" depart="00.88">
        <route edges="671109817#6 671109817#7 671109817#8 671109817#9 23921882#0 23921882#1 197678461#0 197678461#1 4408744#1 4408744#2 4408744#3 4408744#4 4408744#5 4408744#6 4408744#7 684420995#0 684420995#2 238615883"/>
    </vehicle>
    <vehicle id="89" depart="00.89">
        <route edges="-197598189#3 197598189#3 671109817#5 671109817#6 671109817#7 671109817#8 671109817#9 23921882#0 23921882#1 197678461#0 197678461#1 4408744#1"/>
    </vehicle>
    <vehicle id="90" depart="00.90">
        <route edges="1142249270#4 671109817#2 671109817#3 671109817#4 671109817#5 671109817#6 671109817#7 671109817#8 671109817#9 23921882#0 23921882#1 197678461#0 197678461#1 4408744#1 4408744#2 4408744#3 4408744#4 4408744#5 4408744#6 4408744#7 684421002#0 23726127#0"/>
    </vehicle>
    
    <vehicle id="91" depart="00.91">
        <route edges="-651362340#0 651362341#0 671109817#0 671109817#1 671109817#2 671109817#3 671109817#4 671109817#5 671109817#6 671109817#7 671109817#8 671109817#9 23921882#0 23921882#1 651362343"/>
    </vehicle>
    
    <vehicle id="92" depart="00.92">
        <route edges="223333681#2 -8071144#0 778158671 671109817#6 671109817#7 671109817#8 671109817#9 23921882#0 23921882#1 197678461#0 197678461#1 4408744#1 4408744#2 4408744#3 4408744#4 4408744#5 4408744#6 4408744#7 -298699449"/>
    </vehicle>
    
    <vehicle id="93" depart="00.93">
        <route edges="985000008#0 -223335370#3 197598189#3 671109817#5 671109817#6 671109817#7 671109817#8 671109817#9 23921882#0 23921882#1 651362343 302666746#0 -685997309"/>
    </vehicle>
    <vehicle id="94" depart="00.94">
        <route edges="23730370#8 -23730370#8 -23730370#7 -23730370#6 -23730370#5 -23730370#4 -23730370#3 1142249270#1 1142249270#2 1142249270#3 1142249270#4 671109817#2 671109817#3 671109817#4 671109817#5 671109817#6 671109817#7 671109817#8 671109817#9 23921882#0 23921882#1 197678461#0 197678461#1 4408744#1 4408744#2 4408744#3 4408744#4 4408744#5 4408744#6 4408744#7 684420995#0 684420995#2 238615883"/>
    </vehicle>
    <vehicle id="95" depart="00.95">
        <route edges="260770898#6 260770898#7 260770898#8 671109817#0 671109817#1 671109817#2 671109817#3 671109817#4 671109817#5 671109817#6 671109817#7 671109817#8 671109817#9 4367113#0 299749393 299749397#0 299749397#1 299749397#2"/>
    </vehicle>
    
    <vehicle id="96" depart="00.96">
        <route edges="23730370#6 -23730370#6 -23730370#5 -23730370#4 -23730370#3 1142249270#1 1142249270#2 1142249270#3 1142249270#4 671109817#2 671109817#3 671109817#4 671109817#5 671109817#6 671109817#7 671109817#8 671109817#9 23921882#0 23921882#1 651362343 302666746#0 -685997309 -685997310#1 -685997310#0 -223333721#1 685765578#1"/>
    </vehicle>
    
    <vehicle id="97" depart="00.97">
        <route edges="-23730370#2 260770898#5 260770898#6 260770898#7 260770898#8 671109817#0 671109817#1 671109817#2 671109817#3 671109817#4 671109817#5 671109817#6 671109817#7 671109817#8 671109817#9 23921882#0 23921882#1 651362343 302666746#0 -685997309 -685997310#1 -223333704#2"/>
    </vehicle>
    <vehicle id="98" depart="00.98">
        <route edges="-197598658#0 -8071144#2 -8071144#0 778158671 671109817#6 671109817#7 671109817#8 671109817#9 23921882#0 23921882#1 651362343 302666746#0 -685997309 -685997310#1 -685997310#0 -223333721#1 -223333721#0 223333721#0"/>
    </vehicle>
    
    <vehicle id="99" depart="00.99">
        <route edges="-197598659#1 1142249270#3 1142249270#4 671109817#2 671109817#3 671109817#4 671109817#5 671109817#6 671109817#7 671109817#8 671109817#9 23921882#0 23921882#1 197678461#0 197678461#1 4408744#1 4408744#2 4408744#3 4408744#4 4408744#5 4408744#6 4408744#7 684420997"/>
    </vehicle>
    
    <vehicle id="100" depart="01.00">
        <route edges="-8071144#4 -8071144#2 -8071144#0 778158671 671109817#6 671109817#7 671109817#8 671109817#9 23921882#0 23921882#1 651362343 302666746#0 302666746#1 302666746#2 302666746#3 302666743#0 685765581#0 685765581#1 685765581#2 685765579#0 685765579#1 8575236#0 223333688#1 223333688#2 223333688#3"/>
    </vehicle>
</routes>
