<?xml version="1.0"?>

<routes>

   <vType id="vtype0" accel="2.6" decel="4.5" sigma="0.5" length="2.5" minGap="2.5" maxSpeed="15" color="1,1,0"/>


   <route id="route0" edges="gneE4 gneE5 gneE6"/>


   <flow id="flow1" type="vtype0" route="route0" begin="0" period="3" number="10"/>
 
  
</routes>
